46
Lattice="8.423763084275341 0.0 0.0 4.211881542137671 7.295192826444 0.0 0.0 0.0 23.170631675808018" Properties=species:S:1:pos:R:3 pbc="T T T"
Pt       8.42376308       1.62115396       7.00000000 
Pt       2.80792103       1.62115396       7.00000000 
Pt       5.61584206       1.62115396       7.00000000 
Pt       9.82772360       4.05288490       7.00000000 
Pt       4.21188154       4.05288490       7.00000000 
Pt       7.01980257       4.05288490       7.00000000 
Pt      11.23168411       6.48461585       7.00000000 
Pt       5.61584206       6.48461585       7.00000000 
Pt       8.42376308       6.48461585       7.00000000 
Pt       0.00000000       0.00000000       9.29265792 
Pt       2.80792103       0.00000000       9.29265792 
Pt       5.61584206       0.00000000       9.29265792 
Pt       1.40396051       2.43173094       9.29265792 
Pt       4.21188154       2.43173094       9.29265792 
Pt       7.01980257       2.43173094       9.29265792 
Pt       2.80792103       4.86346188       9.29265792 
Pt       5.61584206       4.86346188       9.29265792 
Pt       8.42376308       4.86346188       9.29265792 
Pt       1.40396051       0.81057698      11.62835763 
Pt       4.21523815       0.80886527      11.63479232 
Pt       7.01644596       0.80886527      11.63479232 
Pt       2.80811695       3.24607068      11.63479232 
Pt       5.61584206       3.24230792      11.63213431 
Pt       8.42356716       3.24607068      11.63479232 
Pt       4.20872086       5.67198781      11.63479232 
Pt       7.02296326       5.67198781      11.63479232 
Pt       9.82772360       5.67403887      11.62537318 
Pt      12.63364608       7.29403897      16.04517424 
Pt       7.02180111       7.29403897      16.04517424 
Pt       9.82772360       7.28745087      16.00720656 
Pt       9.82772360       2.43403866      16.04517424 
Pt       4.23186072       2.44326593      16.00653696 
Pt       6.99982339       2.44326593      16.00653696 
Pt      11.22497938       4.86733286      16.00720656 
Pt       5.61584206       4.84039192      16.00653696 
Pt       8.43046781       4.86733286      16.00720656 
Re       8.43654980       1.61377155      13.79418231 
Re       2.79513431       1.61377155      13.79418231 
Re       5.61584206       1.62556574      13.79762405 
Re       9.82772360       4.02183946      13.81896759 
Re       4.21570226       4.05067901      13.79762405 
Re       7.01598185       4.05067901      13.79762405 
Re      11.25857026       6.50013857      13.81896759 
Re       5.61584206       6.49938068      13.79418231 
Re       8.39687694       6.50013857      13.81896759 
S       1.40396051       0.81057698      17.80884246 
