47
Lattice="8.423763084275341 0.0 0.0 4.211881542137671 7.295192826444 0.0 0.0 0.0 23.170631675808018" Properties=species:S:1:pos:R:3 pbc="T T T"
Pt       8.42376308       1.62115396       7.00000000 
Pt       2.80792103       1.62115396       7.00000000 
Pt       5.61584206       1.62115396       7.00000000 
Pt       9.82772360       4.05288490       7.00000000 
Pt       4.21188154       4.05288490       7.00000000 
Pt       7.01980257       4.05288490       7.00000000 
Pt      11.23168411       6.48461585       7.00000000 
Pt       5.61584206       6.48461585       7.00000000 
Pt       8.42376308       6.48461585       7.00000000 
Pt       0.00000000       0.00000000       9.29265792 
Pt       2.80792103       0.00000000       9.29265792 
Pt       5.61584206       0.00000000       9.29265792 
Pt       1.40396051       2.43173094       9.29265792 
Pt       4.21188154       2.43173094       9.29265792 
Pt       7.01980257       2.43173094       9.29265792 
Pt       2.80792103       4.86346188       9.29265792 
Pt       5.61584206       4.86346188       9.29265792 
Pt       8.42376308       4.86346188       9.29265792 
Pt       1.40942923       0.81373434      11.62504262 
Pt       4.21295920       0.80733749      11.62300992 
Pt       7.02072366       0.81686777      11.62124923 
Pt       2.80565438       3.24486095      11.62300992 
Pt       5.62343520       3.24669183      11.62364154 
Pt       8.42636517       3.25081616      11.64016428 
Pt       4.21779007       5.67169116      11.62124923 
Pt       7.02847196       5.67203822      11.64016428 
Pt       9.82601666       5.67305337      11.63278949 
Pt       0.00498554       0.00287840      16.04816155 
Pt       2.82385715       0.00002138      15.99427304 
Pt       9.81144958       7.29138301      15.98992519 
Pt       1.41194709       2.44552134      15.99427304 
Pt       4.21468030       2.43334681      16.00726457 
Pt       7.02079460       2.44812533      15.99678847 
Pt      11.22024771       4.85127308      15.98992519 
Pt       5.63053603       4.85612381      15.99678847 
Pt       8.42464849       4.86397308      15.99661488 
Re       8.42342215       1.56368808      13.81071699 
Re       2.81329515       1.62425671      13.77821019 
Re       5.61672330       1.62231172      13.77548361 
Re       9.85167606       4.05091084      13.80179005 
Re       4.21332481       4.05306920      13.77548361 
Re       6.99979162       4.04133158      13.81075545 
Re      11.27065217       6.50711406      13.79121729 
Re       5.56590468       6.51305353      13.81071699 
Re       8.43402972       6.50634631      13.80179005 
O      12.42313376       7.17249962      18.06224324 
H       0.54426326       0.31423054      18.49951221 
