46
Lattice="8.939078464773537 0.0 0.0 4.469539232386769 7.741469036916281 0.0 0.0 0.0 23.731636004176345" Properties=species:S:1:pos:R:3 pbc="T T T"
Au       8.93907846       1.72032645       7.00000000 
Au       2.97969282       1.72032645       7.00000000 
Au       5.95938564       1.72032645       7.00000000 
Au      10.42892488       4.30081613       7.00000000 
Au       4.46953923       4.30081613       7.00000000 
Au       7.44923205       4.30081613       7.00000000 
Au      11.91877129       6.88130581       7.00000000 
Au       5.95938564       6.88130581       7.00000000 
Au       8.93907846       6.88130581       7.00000000 
Au       0.00000000       0.00000000       9.43290900 
Au       2.97969282       0.00000000       9.43290900 
Au       5.95938564       0.00000000       9.43290900 
Au       1.48984641       2.58048968       9.43290900 
Au       4.46953923       2.58048968       9.43290900 
Au       7.44923205       2.58048968       9.43290900 
Au       2.97969282       5.16097936       9.43290900 
Au       5.95938564       5.16097936       9.43290900 
Au       8.93907846       5.16097936       9.43290900 
Au       1.48984641       0.86016323      11.86581800 
Au       4.46953923       0.86016323      11.86581800 
Au       7.44923205       0.86016323      11.86581800 
Au       2.97969282       3.44065291      11.86581800 
Au       5.95938564       3.44065291      11.86581800 
Au       8.93907846       3.44065291      11.86581800 
Au       4.46953923       6.02114258      11.86581800 
Au       7.44923205       6.02114258      11.86581800 
Au      10.42892488       6.02114258      11.86581800 
Au      13.29838182       7.67782432      16.00710511 
Au       7.55946793       7.67782432      16.00710511 
Au      10.42892488       7.72181409      15.82928724 
Au      10.42892488       2.70777911      16.00710511 
Au       4.47701535       2.58480601      15.79868150 
Au       7.44175594       2.58480601      15.79868150 
Au      11.90174960       5.17080683      15.82928724 
Au       5.95938564       5.15234669      15.79868150 
Au       8.95610015       5.17080683      15.82928724 
Ni       9.03299162       1.66610567      13.90377482 
Ni       2.88577966       1.66610567      13.90377482 
Ni       5.95938564       1.69771712      13.84017842 
Ni      10.42892488       4.17079241      13.87219127 
Ni       4.44995898       4.31212080      13.84017842 
Ni       7.46881231       4.31212080      13.84017842 
Ni      12.03137514       6.94631767      13.87219127 
Ni       5.95938564       6.98974738      13.90377482 
Ni       8.82647462       6.94631767      13.87219127 
S       1.48984641       0.86016323      17.55317831 
