46
Lattice="8.939078464773537 0.0 0.0 4.469539232386769 7.741469036916281 0.0 0.0 0.0 23.731636004176345" Properties=species:S:1:pos:R:3 pbc="T T T"
Au       8.93907846       1.72032645       7.00000000 
Au       2.97969282       1.72032645       7.00000000 
Au       5.95938564       1.72032645       7.00000000 
Au      10.42892488       4.30081613       7.00000000 
Au       4.46953923       4.30081613       7.00000000 
Au       7.44923205       4.30081613       7.00000000 
Au      11.91877129       6.88130581       7.00000000 
Au       5.95938564       6.88130581       7.00000000 
Au       8.93907846       6.88130581       7.00000000 
Au       0.00000000       0.00000000       9.43290900 
Au       2.97969282       0.00000000       9.43290900 
Au       5.95938564       0.00000000       9.43290900 
Au       1.48984641       2.58048968       9.43290900 
Au       4.46953923       2.58048968       9.43290900 
Au       7.44923205       2.58048968       9.43290900 
Au       2.97969282       5.16097936       9.43290900 
Au       5.95938564       5.16097936       9.43290900 
Au       8.93907846       5.16097936       9.43290900 
Au       1.48984641       0.86016323      11.86581800 
Au       4.46953923       0.86016323      11.86581800 
Au       7.44923205       0.86016323      11.86581800 
Au       2.97969282       3.44065291      11.86581800 
Au       5.95938564       3.44065291      11.86581800 
Au       8.93907846       3.44065291      11.86581800 
Au       4.46953923       6.02114258      11.86581800 
Au       7.44923205       6.02114258      11.86581800 
Au      10.42892488       6.02114258      11.86581800 
Au      13.32219445       7.69157255      15.95082811 
Au       7.53565530       7.69157255      15.95082811 
Au      10.42892488       7.72424096      15.85920402 
Au      10.42892488       2.68028265      15.95082811 
Au       4.47385702       2.58298255      15.80559513 
Au       7.44491427       2.58298255      15.80559513 
Au      11.90385133       5.16959340      15.85920402 
Au       5.95938564       5.15599361      15.80559513 
Au       8.95399842       5.16959340      15.85920402 
Ni       9.02530127       1.67054569      13.89005407 
Ni       2.89347001       1.67054569      13.89005407 
Ni       5.95938564       1.67665902      13.84705065 
Ni      10.42892488       4.18530942      13.87391506 
Ni       4.43172213       4.32264985      13.84705065 
Ni       7.48704916       4.32264985      13.84705065 
Ni      12.01880303       6.93905917      13.87391506 
Ni       5.95938564       6.98086733      13.89005407 
Ni       8.83904672       6.93905917      13.87391506 
Cl       1.48984641       0.86016323      17.89874196 
