46
Lattice="8.939078464773537 0.0 0.0 4.469539232386769 7.741469036916281 0.0 0.0 0.0 23.731636004176345" Properties=species:S:1:pos:R:3 pbc="T T T"
Au       8.93907846       1.72032645       7.00000000 
Au       2.97969282       1.72032645       7.00000000 
Au       5.95938564       1.72032645       7.00000000 
Au      10.42892488       4.30081613       7.00000000 
Au       4.46953923       4.30081613       7.00000000 
Au       7.44923205       4.30081613       7.00000000 
Au      11.91877129       6.88130581       7.00000000 
Au       5.95938564       6.88130581       7.00000000 
Au       8.93907846       6.88130581       7.00000000 
Au       0.00000000       0.00000000       9.43290900 
Au       2.97969282       0.00000000       9.43290900 
Au       5.95938564       0.00000000       9.43290900 
Au       1.48984641       2.58048968       9.43290900 
Au       4.46953923       2.58048968       9.43290900 
Au       7.44923205       2.58048968       9.43290900 
Au       2.97969282       5.16097936       9.43290900 
Au       5.95938564       5.16097936       9.43290900 
Au       8.93907846       5.16097936       9.43290900 
Au       1.48984641       0.86016323      11.86581800 
Au       4.46953923       0.86016323      11.86581800 
Au       7.44923205       0.86016323      11.86581800 
Au       2.97969282       3.44065291      11.86581800 
Au       5.95938564       3.44065291      11.86581800 
Au       8.93907846       3.44065291      11.86581800 
Au       4.46953923       6.02114258      11.86581800 
Au       7.44923205       6.02114258      11.86581800 
Au      10.42892488       6.02114258      11.86581800 
Au      13.31279975       7.68614852      15.98461838 
Au       7.54505000       7.68614852      15.98461838 
Au      10.42892488       7.72279450      15.83467578 
Au      10.42892488       2.69113071      15.98461838 
Au       4.47922152       2.58607975      15.82034425 
Au       7.43954977       2.58607975      15.82034425 
Au      11.90259866       5.17031663      15.83467578 
Au       5.95938564       5.14979922      15.82034425 
Au       8.95525109       5.17031663      15.83467578 
Ni       9.00028198       1.68499058      13.89279221 
Ni       2.91848930       1.68499058      13.89279221 
Ni       5.95938564       1.70324140      13.84771204 
Ni      10.42892488       4.17165852      13.87797376 
Ni       4.45474314       4.30935866      13.84771204 
Ni       7.46402814       4.30935866      13.84771204 
Ni      12.03062506       6.94588462      13.87797376 
Ni       5.95938564       6.95197755      13.89279221 
Ni       8.82722469       6.94588462      13.87797376 
O       1.48984641       0.86016323      17.13902357 
