47
Lattice="8.478433752169561 0.0 0.0 4.239216876084781 7.342539013682256 0.0 0.0 0.0 23.230149560358235" Properties=species:S:1:pos:R:3 pbc="T T T"
Pd       8.47843375       1.63167534       7.00000000 
Pd       2.82614458       1.63167534       7.00000000 
Pd       5.65228917       1.63167534       7.00000000 
Pd       9.89150604       4.07918834       7.00000000 
Pd       4.23921688       4.07918834       7.00000000 
Pd       7.06536146       4.07918834       7.00000000 
Pd      11.30457834       6.52670135       7.00000000 
Pd       5.65228917       6.52670135       7.00000000 
Pd       8.47843375       6.52670135       7.00000000 
Pd       0.00000000       0.00000000       9.30753739 
Pd       2.82614458       0.00000000       9.30753739 
Pd       5.65228917       0.00000000       9.30753739 
Pd       1.41307229       2.44751300       9.30753739 
Pd       4.23921688       2.44751300       9.30753739 
Pd       7.06536146       2.44751300       9.30753739 
Pd       2.82614458       4.89502601       9.30753739 
Pd       5.65228917       4.89502601       9.30753739 
Pd       8.47843375       4.89502601       9.30753739 
Pd       1.41307229       0.81583767      11.61507478 
Pd       4.23921688       0.81583767      11.61507478 
Pd       7.06536146       0.81583767      11.61507478 
Pd       2.82614458       3.26335067      11.61507478 
Pd       5.65228917       3.26335067      11.61507478 
Pd       8.47843375       3.26335067      11.61507478 
Pd       4.23921688       5.71086368      11.61507478 
Pd       7.06536146       5.71086368      11.61507478 
Pd       9.89150604       5.71086368      11.61507478 
Pd       4.23397306       7.31334469      15.76177712 
Pd       7.04077315       7.31726546      15.76590491 
Pd       9.88184265       7.33229008      15.63695195 
Pd       9.88541575       2.46394193      15.52740127 
Pd       4.22891178       2.43973998      15.62420474 
Pd       7.06427764       2.44222960      15.62893798 
Pd      11.29138590       4.88172426      15.64038098 
Pd       5.64566813       4.84398648      15.67867782 
Pd       8.47964915       4.88532845      15.64198374 
Co       8.40720129       1.44549445      13.65302743 
Co       2.88530198       1.44356509      13.65195435 
Co       5.65145425       1.60737561      13.63205332 
Co       9.88315713       4.17647136      13.61964150 
Co       4.28354169       4.12340136      13.63818067 
Co       7.01443376       4.12370541      13.63867364 
Co      11.40425268       6.58612417      13.66943858 
Co       5.64829615       6.52501612      13.65714314 
Co       8.35827446       6.58765460      13.67285907 
O       5.62272926       7.28669618      17.43479407 
H       1.37012370       0.78423895      17.93303147 
