47
Lattice="8.738335799342142 0.0 0.0 4.369167899671071 7.567620789029295 0.0 0.0 0.0 23.51309507088161" Properties=species:S:1:pos:R:3 pbc="T T T"
Ag       8.73833580       1.68169351       7.00000000 
Ag       2.91277860       1.68169351       7.00000000 
Ag       5.82555720       1.68169351       7.00000000 
Ag      10.19472510       4.20423377       7.00000000 
Ag       4.36916790       4.20423377       7.00000000 
Ag       7.28194650       4.20423377       7.00000000 
Ag      11.65111440       6.72677403       7.00000000 
Ag       5.82555720       6.72677403       7.00000000 
Ag       8.73833580       6.72677403       7.00000000 
Ag       0.00000000       0.00000000       9.37827377 
Ag       2.91277860       0.00000000       9.37827377 
Ag       5.82555720       0.00000000       9.37827377 
Ag       1.45638930       2.52254026       9.37827377 
Ag       4.36916790       2.52254026       9.37827377 
Ag       7.28194650       2.52254026       9.37827377 
Ag       2.91277860       5.04508053       9.37827377 
Ag       5.82555720       5.04508053       9.37827377 
Ag       8.73833580       5.04508053       9.37827377 
Ag       1.45638930       0.84084675      11.75654754 
Ag       4.36916790       0.84084675      11.75654754 
Ag       7.28194650       0.84084675      11.75654754 
Ag       2.91277860       3.36338702      11.75654754 
Ag       5.82555720       3.36338702      11.75654754 
Ag       8.73833580       3.36338702      11.75654754 
Ag       4.36916790       5.88592728      11.75654754 
Ag       7.28194650       5.88592728      11.75654754 
Ag      10.19472510       5.88592728      11.75654754 
Ag      13.02199402       7.51825175      16.63444863 
Ag       7.40789956       7.50842103      16.60861289 
Ag       5.84723004       0.01356304      16.58241494 
Ag      10.20643313       2.66121870      16.60861289 
Ag       4.40711623       2.54444974      16.55589908 
Ag       7.27348281       2.54674420      16.55918352 
Ag       2.93536095       5.05706823      16.58241494 
Ag       5.84228657       5.02564878      16.55918352 
Ag       8.75751949       5.05615623      16.57757551 
Au       8.75802641       1.67971706      14.19644564 
Au       2.91094879       1.68063707      14.19156415 
Au       5.83416205       1.68285645      14.14616839 
Au      10.20470253       4.19753556      14.16932018 
Au       4.37447746       4.21110432      14.14616839 
Au       7.29379300       4.21107335      14.14545761 
Au      11.67498281       6.74055447      14.17388996 
Au       5.83369085       6.74481483      14.19644564 
Au       8.73752370       6.73876385      14.16932018 
O       1.50623021       0.86962242      17.99802358 
H       1.55622874       0.89848908      18.97032340 
