46
Lattice="8.33952545343259 0.0 0.0 4.169762726716295 7.22224089817956 0.0 0.0 0.0 23.078925359049936" Properties=species:S:1:pos:R:3 pbc="T T T"
Pt       8.33952545       1.60494242       7.00000000 
Pt       2.77984182       1.60494242       7.00000000 
Pt       5.55968364       1.60494242       7.00000000 
Pt       9.72944636       4.01235605       7.00000000 
Pt       4.16976273       4.01235605       7.00000000 
Pt       6.94960454       4.01235605       7.00000000 
Pt      11.11936727       6.41976969       7.00000000 
Pt       5.55968364       6.41976969       7.00000000 
Pt       8.33952545       6.41976969       7.00000000 
Pt       0.00000000       0.00000000       9.26973134 
Pt       2.77984182       0.00000000       9.26973134 
Pt       5.55968364       0.00000000       9.26973134 
Pt       1.38992091       2.40741363       9.26973134 
Pt       4.16976273       2.40741363       9.26973134 
Pt       6.94960454       2.40741363       9.26973134 
Pt       2.77984182       4.81482727       9.26973134 
Pt       5.55968364       4.81482727       9.26973134 
Pt       8.33952545       4.81482727       9.26973134 
Pt       1.38992091       0.80247121      11.65589584 
Pt       4.16626432       0.80414555      11.64716349 
Pt       6.95310295       0.80414555      11.64716349 
Pt       2.77954263       3.20601797      11.64716349 
Pt       5.55968364       3.20988484      11.64190316 
Pt       8.33982464       3.20601797      11.64716349 
Pt       4.17296195       5.61949102      11.64716349 
Pt       6.94640532       5.61949102      11.64716349 
Pt       9.72944636       5.61729848      11.63962472 
Pt      12.46250590       7.19523114      15.91091869 
Pt       6.99638683       7.19523114      15.91091869 
Pt       9.72944636       7.22005557      15.80227672 
Pt       9.72944636       2.46143316      15.91091869 
Pt       4.19183067       2.42015456      15.83320249 
Pt       6.92753660       2.42015456      15.83320249 
Pt      11.11747472       4.81591993      15.80227672 
Pt       5.55968364       4.78934540      15.83320249 
Pt       8.34141800       4.81591993      15.80227672 
Fe       8.34325006       1.60279202      13.76502516 
Fe       2.77611721       1.60279202      13.76502516 
Fe       5.55968364       1.60751458      13.73852771 
Fe       9.72944636       4.01059149      13.72879073 
Fe       4.17199028       4.01106997      13.73852771 
Fe       6.94737699       4.01106997      13.73852771 
Fe      11.12089543       6.42065197      13.72879073 
Fe       5.55968364       6.42407049      13.76502516 
Fe       8.33799729       6.42065197      13.72879073 
S       1.38992091       0.80247121      17.55937477 
