47
Lattice="8.305745548281743 0.0 0.0 4.152872774140872 7.1929866421815 0.0 0.0 0.0 23.042150456303634" Properties=species:S:1:pos:R:3 pbc="T T T"
Ir       8.30574555       1.59844148       7.00000000 
Ir       2.76858185       1.59844148       7.00000000 
Ir       5.53716370       1.59844148       7.00000000 
Ir       9.69003647       3.99610369       7.00000000 
Ir       4.15287277       3.99610369       7.00000000 
Ir       6.92145462       3.99610369       7.00000000 
Ir      11.07432740       6.39376590       7.00000000 
Ir       5.53716370       6.39376590       7.00000000 
Ir       8.30574555       6.39376590       7.00000000 
Ir       0.00000000       0.00000000       9.26053761 
Ir       2.76858185       0.00000000       9.26053761 
Ir       5.53716370       0.00000000       9.26053761 
Ir       1.38429092       2.39766221       9.26053761 
Ir       4.15287277       2.39766221       9.26053761 
Ir       6.92145462       2.39766221       9.26053761 
Ir       2.76858185       4.79532443       9.26053761 
Ir       5.53716370       4.79532443       9.26053761 
Ir       8.30574555       4.79532443       9.26053761 
Ir       1.38429092       0.79922074      11.52107523 
Ir       4.15287277       0.79922074      11.52107523 
Ir       6.92145462       0.79922074      11.52107523 
Ir       2.76858185       3.19688295      11.52107523 
Ir       5.53716370       3.19688295      11.52107523 
Ir       8.30574555       3.19688295      11.52107523 
Ir       4.15287277       5.59454517      11.52107523 
Ir       6.92145462       5.59454517      11.52107523 
Ir       9.69003647       5.59454517      11.52107523 
Ir       0.01262007       0.00728620      16.24491749 
Ir       2.78742022       0.00087529      16.00952714 
Ir       9.64849098       7.18991447      16.00207333 
Ir       1.39446813       2.41353907      16.00952714 
Ir       4.14205777       2.39141817      16.01928669 
Ir       6.88697947       2.41076321      16.00433462 
Ir      11.05089407       4.76088106      16.00207333 
Ir       5.53127192       4.75891757      16.00433462 
Ir       8.29587439       4.78962531      16.01138128 
Pt       8.29584424       1.57334269      13.82908198 
Pt       2.75812420       1.59240375      13.77315118 
Pt       5.53085847       1.59154804      13.77385535 
Pt       9.67931670       3.99040716      13.76428252 
Pt       4.14375028       3.99408992      13.77385535 
Pt       6.91459171       3.99214139      13.76209220 
Pt      11.07552777       6.39445894      13.81605279 
Pt       5.51047686       6.39774051      13.82908198 
Pt       8.29545232       6.38733058      13.76428252 
O      12.35635460       7.13394466      18.18662017 
H       0.68229900       0.39392551      18.55898237 
