46
Lattice="8.235898954649699 0.0 0.0 4.117949477324849 7.13249771772834 0.0 0.0 0.0 22.966111116450286" Properties=species:S:1:pos:R:3 pbc="T T T"
Rh       8.23589895       1.58499949       7.00000000 
Rh       2.74529965       1.58499949       7.00000000 
Rh       5.49059930       1.58499949       7.00000000 
Rh       9.60854878       3.96249873       7.00000000 
Rh       4.11794948       3.96249873       7.00000000 
Rh       6.86324913       3.96249873       7.00000000 
Rh      10.98119861       6.33999797       7.00000000 
Rh       5.49059930       6.33999797       7.00000000 
Rh       8.23589895       6.33999797       7.00000000 
Rh       0.00000000       0.00000000       9.24152778 
Rh       2.74529965       0.00000000       9.24152778 
Rh       5.49059930       0.00000000       9.24152778 
Rh       1.37264983       2.37749924       9.24152778 
Rh       4.11794948       2.37749924       9.24152778 
Rh       6.86324913       2.37749924       9.24152778 
Rh       2.74529965       4.75499848       9.24152778 
Rh       5.49059930       4.75499848       9.24152778 
Rh       8.23589895       4.75499848       9.24152778 
Rh       1.37264983       0.79249975      11.48305556 
Rh       4.11794948       0.79249975      11.48305556 
Rh       6.86324913       0.79249975      11.48305556 
Rh       2.74529965       3.16999899      11.48305556 
Rh       5.49059930       3.16999899      11.48305556 
Rh       8.23589895       3.16999899      11.48305556 
Rh       4.11794948       5.54749822      11.48305556 
Rh       6.86324913       5.54749822      11.48305556 
Rh       9.60854878       5.54749822      11.48305556 
Rh      12.34958181       7.13003438      15.82299917 
Rh       6.86751575       7.13003438      15.82299917 
Rh       5.49059930       0.00041246      15.75452540 
Rh       9.60854878       2.38242591      15.82299917 
Rh       4.14926148       2.39557723      15.76534593 
Rh       6.83193713       2.39557723      15.76534593 
Rh       2.74565686       4.75479225      15.75452540 
Rh       5.49059930       4.71884249      15.76534593 
Rh       8.23554175       4.75479225      15.75452540 
Ru       8.24037849       1.58241323      13.64033798 
Ru       2.74082012       1.58241323      13.64033798 
Ru       5.49059930       1.57726015      13.64885748 
Ru       9.60854878       3.96850712      13.63792729 
Ru       4.11124701       3.96636841      13.64885748 
Ru       6.86995160       3.96636841      13.64885748 
Ru      10.97599519       6.33699378      13.63792729 
Ru       5.49059930       6.34517049      13.64033798 
Ru       8.24110237       6.33699378      13.63792729 
S       1.37264983       0.79249975      17.47231335 
