47
Lattice="8.478433752169561 0.0 0.0 4.239216876084781 7.342539013682256 0.0 0.0 0.0 23.230149560358235" Properties=species:S:1:pos:R:3 pbc="T T T"
Pd       8.47843375       1.63167534       7.00000000 
Pd       2.82614458       1.63167534       7.00000000 
Pd       5.65228917       1.63167534       7.00000000 
Pd       9.89150604       4.07918834       7.00000000 
Pd       4.23921688       4.07918834       7.00000000 
Pd       7.06536146       4.07918834       7.00000000 
Pd      11.30457834       6.52670135       7.00000000 
Pd       5.65228917       6.52670135       7.00000000 
Pd       8.47843375       6.52670135       7.00000000 
Pd       0.00000000       0.00000000       9.30753739 
Pd       2.82614458       0.00000000       9.30753739 
Pd       5.65228917       0.00000000       9.30753739 
Pd       1.41307229       2.44751300       9.30753739 
Pd       4.23921688       2.44751300       9.30753739 
Pd       7.06536146       2.44751300       9.30753739 
Pd       2.82614458       4.89502601       9.30753739 
Pd       5.65228917       4.89502601       9.30753739 
Pd       8.47843375       4.89502601       9.30753739 
Pd       1.41307229       0.81583767      11.61507478 
Pd       4.23921688       0.81583767      11.61507478 
Pd       7.06536146       0.81583767      11.61507478 
Pd       2.82614458       3.26335067      11.61507478 
Pd       5.65228917       3.26335067      11.61507478 
Pd       8.47843375       3.26335067      11.61507478 
Pd       4.23921688       5.71086368      11.61507478 
Pd       7.06536146       5.71086368      11.61507478 
Pd       9.89150604       5.71086368      11.61507478 
Pd       4.24951407       7.32808952      15.96856741 
Pd       7.05161170       7.32966170      15.97314527 
Pd       9.89062483       7.33780329      15.91721067 
Pd       9.89087781       2.47137716      15.89536965 
Pd       4.23567610       2.44508130      15.91413828 
Pd       7.06799622       2.44507530      15.91408394 
Pd      11.29611837       4.90002841      15.90952268 
Pd       5.65191352       4.86339148      15.90892183 
Pd       8.48541048       4.89908915      15.90903711 
Os       8.47685512       1.61056552      13.74723323 
Os       2.82728081       1.61060559      13.74699584 
Os       5.65157620       1.63084707      13.75075302 
Os       9.89173303       4.06113108      13.77012989 
Os       4.24190577       4.08026566      13.75372498 
Os       7.06192241       4.08023947      13.75378040 
Os      11.36430077       6.57780486      13.79497298 
Os       5.65264216       6.52318937      13.72951311 
Os       8.41730171       6.57846687      13.79650140 
O       5.63894504       7.31457075      17.65016584 
H       1.38343489       0.74852689      18.24106952 
