46
Lattice="9.003133853867665 0.0 0.0 4.501566926933832 7.796942631121092 0.0 0.0 0.0 23.801370679090148" Properties=species:S:1:pos:R:3 pbc="T T T"
Ag       9.00313385       1.73265392       7.00000000 
Ag       3.00104462       1.73265392       7.00000000 
Ag       6.00208924       1.73265392       7.00000000 
Ag      10.50365616       4.33163480       7.00000000 
Ag       4.50156693       4.33163480       7.00000000 
Ag       7.50261154       4.33163480       7.00000000 
Ag      12.00417847       6.93061567       7.00000000 
Ag       6.00208924       6.93061567       7.00000000 
Ag       9.00313385       6.93061567       7.00000000 
Ag       0.00000000       0.00000000       9.45034267 
Ag       3.00104462       0.00000000       9.45034267 
Ag       6.00208924       0.00000000       9.45034267 
Ag       1.50052231       2.59898088       9.45034267 
Ag       4.50156693       2.59898088       9.45034267 
Ag       7.50261154       2.59898088       9.45034267 
Ag       3.00104462       5.19796175       9.45034267 
Ag       6.00208924       5.19796175       9.45034267 
Ag       9.00313385       5.19796175       9.45034267 
Ag       1.50052231       0.86632696      11.90068534 
Ag       4.50156693       0.86632696      11.90068534 
Ag       7.50261154       0.86632696      11.90068534 
Ag       3.00104462       3.46530784      11.90068534 
Ag       6.00208924       3.46530784      11.90068534 
Ag       9.00313385       3.46530784      11.90068534 
Ag       4.50156693       6.06428871      11.90068534 
Ag       7.50261154       6.06428871      11.90068534 
Ag      10.50365616       6.06428871      11.90068534 
Ag      13.40764244       7.74090597      16.63952279 
Ag       7.59966988       7.74090597      16.63952279 
Ag       6.00208924       0.00098760      16.57804352 
Ag      10.50365616       2.71105419      16.63952279 
Ag       4.53932588       2.62078102      16.56494609 
Ag       7.46485260       2.62078102      16.56494609 
Ag       3.00189990       5.19746796      16.57804352 
Ag       6.00208924       5.15436148      16.56494609 
Ag       9.00227857       5.19746796      16.57804352 
Au       9.01857745       1.72373755      14.27736784 
Au       2.98560102       1.72373755      14.27736784 
Au       6.00208924       1.72275562      14.22255324 
Au      10.50365616       4.30055839      14.25204258 
Au       4.49299475       4.33658395      14.22255324 
Au       7.51118373       4.33658395      14.22255324 
Au      12.03109143       6.94615387      14.25204258 
Au       6.00208924       6.94844840      14.27736784 
Au       8.97622090       6.94615387      14.25204258 
Cl       1.50052231       0.86632696      18.50920186 
