47
Lattice="8.072811846636833 0.0 0.0 4.036405923318417 6.991260139159463 0.0 0.0 0.0 22.78856436166909" Properties=species:S:1:pos:R:3 pbc="T T T"
Rh       8.07281185       1.55361336       7.00000000 
Rh       2.69093728       1.55361336       7.00000000 
Rh       5.38187456       1.55361336       7.00000000 
Rh       9.41828049       3.88403341       7.00000000 
Rh       4.03640592       3.88403341       7.00000000 
Rh       6.72734321       3.88403341       7.00000000 
Rh      10.76374913       6.21445346       7.00000000 
Rh       5.38187456       6.21445346       7.00000000 
Rh       8.07281185       6.21445346       7.00000000 
Rh       0.00000000       0.00000000       9.19714109 
Rh       2.69093728       0.00000000       9.19714109 
Rh       5.38187456       0.00000000       9.19714109 
Rh       1.34546864       2.33042005       9.19714109 
Rh       4.03640592       2.33042005       9.19714109 
Rh       6.72734321       2.33042005       9.19714109 
Rh       2.69093728       4.66084009       9.19714109 
Rh       5.38187456       4.66084009       9.19714109 
Rh       8.07281185       4.66084009       9.19714109 
Rh       1.34546864       0.77680668      11.39428218 
Rh       4.03640592       0.77680668      11.39428218 
Rh       6.72734321       0.77680668      11.39428218 
Rh       2.69093728       3.10722673      11.39428218 
Rh       5.38187456       3.10722673      11.39428218 
Rh       8.07281185       3.10722673      11.39428218 
Rh       4.03640592       5.43764677      11.39428218 
Rh       6.72734321       5.43764677      11.39428218 
Rh       9.41828049       5.43764677      11.39428218 
Rh       4.02440143       6.93588351      16.10425077 
Rh       6.75023953       6.93905554      16.11028912 
Rh       9.42672601       6.97702752      15.96918128 
Rh       9.42640031       2.36496519      15.89286445 
Rh       4.04087694       2.29889801      15.93432268 
Rh       6.73609350       2.29710310      15.93632629 
Rh       2.69242919       4.61940899      15.93021947 
Rh       5.39007156       4.56930403      15.90647393 
Rh       8.08131814       4.62074549      15.93083960 
Pd       8.07701788       1.53502038      13.69392249 
Pd       2.69243731       1.53489999      13.69360699 
Pd       5.38432123       1.54184793      13.67754714 
Pd       9.41972722       3.88501335      13.64664877 
Pd       4.03511400       3.87120444      13.66641244 
Pd       6.73265848       3.86944272      13.66766845 
Pd      10.77640433       6.21640182      13.73873350 
Pd       5.38417389       6.20583575      13.70580396 
Pd       8.06401429       6.21692040      13.73906808 
O       5.38005122       6.95870330      17.66779104 
H       1.33600358       0.84718773      18.10443886 
