47
Lattice="8.154355400643267 0.0 0.0 4.077177700321633 7.061878928443901 0.0 0.0 0.0 22.877337739059687" Properties=species:S:1:pos:R:3 pbc="T T T"
Rh       8.15435540       1.56930643       7.00000000 
Rh       2.71811847       1.56930643       7.00000000 
Rh       5.43623693       1.56930643       7.00000000 
Rh       9.51341463       3.92326607       7.00000000 
Rh       4.07717770       3.92326607       7.00000000 
Rh       6.79529617       3.92326607       7.00000000 
Rh      10.87247387       6.27722571       7.00000000 
Rh       5.43623693       6.27722571       7.00000000 
Rh       8.15435540       6.27722571       7.00000000 
Rh       0.00000000       0.00000000       9.21933443 
Rh       2.71811847       0.00000000       9.21933443 
Rh       5.43623693       0.00000000       9.21933443 
Rh       1.35905923       2.35395964       9.21933443 
Rh       4.07717770       2.35395964       9.21933443 
Rh       6.79529617       2.35395964       9.21933443 
Rh       2.71811847       4.70791929       9.21933443 
Rh       5.43623693       4.70791929       9.21933443 
Rh       8.15435540       4.70791929       9.21933443 
Rh       1.35905923       0.78465321      11.43866887 
Rh       4.07717770       0.78465321      11.43866887 
Rh       6.79529617       0.78465321      11.43866887 
Rh       2.71811847       3.13861286      11.43866887 
Rh       5.43623693       3.13861286      11.43866887 
Rh       8.15435540       3.13861286      11.43866887 
Rh       4.07717770       5.49257250      11.43866887 
Rh       6.79529617       5.49257250      11.43866887 
Rh       9.51341463       5.49257250      11.43866887 
Rh      12.20997934       7.05251560      15.63163584 
Rh       6.81145435       7.05230759      15.63054766 
Rh       5.43314361       0.00955491      15.50840960 
Rh       9.51000486       2.42658889      15.47025739 
Rh       4.07622153       2.36391423      15.51565967 
Rh       6.78982944       2.36388087      15.51580332 
Rh      10.86512293       4.70936821      15.49634558 
Rh       5.43265753       4.65073423      15.49893438 
Rh       8.15522143       4.70923392      15.49633798 
Ni       8.14194931       1.52919839      13.52340094 
Ni       2.72549257       1.52912005      13.52339910 
Ni       5.43409068       1.57309159      13.50287028 
Ni       9.51166505       3.95108009      13.48411545 
Ni       4.07405621       3.92149802      13.49887218 
Ni       6.79398179       3.92174334      13.49861358 
Ni      10.90064863       6.30927034      13.52618490 
Ni       5.43435211       6.29204764      13.52547941 
Ni       8.12303324       6.30845415      13.52562018 
O       1.35791407       0.02956681      17.21507400 
H       1.35910474       0.89494945      17.67607054 
