46
Lattice="7.991268292630401 0.0 0.0 3.9956341463152003 6.920641349875024 0.0 0.0 0.0 22.699790984278494" Properties=species:S:1:pos:R:3 pbc="T T T"
Rh       7.99126829       1.53792030       7.00000000 
Rh       2.66375610       1.53792030       7.00000000 
Rh       5.32751220       1.53792030       7.00000000 
Rh       9.32314634       3.84480075       7.00000000 
Rh       3.99563415       3.84480075       7.00000000 
Rh       6.65939024       3.84480075       7.00000000 
Rh      10.65502439       6.15168120       7.00000000 
Rh       5.32751220       6.15168120       7.00000000 
Rh       7.99126829       6.15168120       7.00000000 
Rh       0.00000000       0.00000000       9.17494775 
Rh       2.66375610       0.00000000       9.17494775 
Rh       5.32751220       0.00000000       9.17494775 
Rh       1.33187805       2.30688045       9.17494775 
Rh       3.99563415       2.30688045       9.17494775 
Rh       6.65939024       2.30688045       9.17494775 
Rh       2.66375610       4.61376090       9.17494775 
Rh       5.32751220       4.61376090       9.17494775 
Rh       7.99126829       4.61376090       9.17494775 
Rh       1.33187805       0.76896015      11.34989549 
Rh       3.99563415       0.76896015      11.34989549 
Rh       6.65939024       0.76896015      11.34989549 
Rh       2.66375610       3.07584060      11.34989549 
Rh       5.32751220       3.07584060      11.34989549 
Rh       7.99126829       3.07584060      11.34989549 
Rh       3.99563415       5.38272105      11.34989549 
Rh       6.65939024       5.38272105      11.34989549 
Rh       9.32314634       5.38272105      11.34989549 
Rh      11.93356569       6.88984736      16.07823601 
Rh       6.71272699       6.88984736      16.07823601 
Rh       5.32751220       0.00720355      15.92777003 
Rh       9.32314634       2.36846842      16.07823601 
Rh       4.01982752       2.32084850      15.92045380 
Rh       6.63519687       2.32084850      15.92045380 
Rh       2.66999455       4.61015913      15.92777003 
Rh       5.32751220       4.58582480      15.92045380 
Rh       7.98502984       4.61015913      15.92777003 
Pd       7.99621497       1.53506433      13.68921072 
Pd       2.65880942       1.53506433      13.68921072 
Pd       5.32751220       1.53639501      13.64801503 
Pd       9.32314634       3.84049791      13.66701907 
Pd       3.99431321       3.84556339      13.64801503 
Pd       6.66071118       3.84556339      13.64801503 
Pd      10.65875076       6.15383262      13.66701907 
Pd       5.32751220       6.15739313      13.68921072 
Pd       7.98754193       6.15383262      13.66701907 
S       1.33187805       0.76896015      17.62805606 
