47
Lattice="8.072811846636833 0.0 0.0 4.036405923318417 6.991260139159463 0.0 0.0 0.0 22.78856436166909" Properties=species:S:1:pos:R:3 pbc="T T T"
Rh       8.07281185       1.55361336       7.00000000 
Rh       2.69093728       1.55361336       7.00000000 
Rh       5.38187456       1.55361336       7.00000000 
Rh       9.41828049       3.88403341       7.00000000 
Rh       4.03640592       3.88403341       7.00000000 
Rh       6.72734321       3.88403341       7.00000000 
Rh      10.76374913       6.21445346       7.00000000 
Rh       5.38187456       6.21445346       7.00000000 
Rh       8.07281185       6.21445346       7.00000000 
Rh       0.00000000       0.00000000       9.19714109 
Rh       2.69093728       0.00000000       9.19714109 
Rh       5.38187456       0.00000000       9.19714109 
Rh       1.34546864       2.33042005       9.19714109 
Rh       4.03640592       2.33042005       9.19714109 
Rh       6.72734321       2.33042005       9.19714109 
Rh       2.69093728       4.66084009       9.19714109 
Rh       5.38187456       4.66084009       9.19714109 
Rh       8.07281185       4.66084009       9.19714109 
Rh       1.34546864       0.77680668      11.39428218 
Rh       4.03640592       0.77680668      11.39428218 
Rh       6.72734321       0.77680668      11.39428218 
Rh       2.69093728       3.10722673      11.39428218 
Rh       5.38187456       3.10722673      11.39428218 
Rh       8.07281185       3.10722673      11.39428218 
Rh       4.03640592       5.43764677      11.39428218 
Rh       6.72734321       5.43764677      11.39428218 
Rh       9.41828049       5.43764677      11.39428218 
Rh      12.09150347       6.97854207      15.62839300 
Rh       6.74506517       6.97804972      15.62259197 
Rh       5.38219445       0.00632340      15.49840138 
Rh       9.41805852       2.39044588      15.45696721 
Rh       4.03637328       2.33567713      15.50603082 
Rh       6.72433574       2.33605492      15.50602071 
Rh      10.75889294       4.66000625      15.48569560 
Rh       5.38073470       4.60534841      15.48684643 
Rh       8.07738856       4.65844020      15.48529951 
Ni       8.06216102       1.51549409      13.49369949 
Ni       2.70125188       1.51640636      13.49162723 
Ni       5.37956143       1.55264150      13.47607746 
Ni       9.42042470       3.90335823      13.45601152 
Ni       4.03490971       3.87752623      13.47116488 
Ni       6.72748090       3.88039082      13.47146846 
Ni      10.79324412       6.24425974      13.50034153 
Ni       5.37926091       6.22786802      13.49790708 
Ni       8.04604073       6.23887122      13.49889982 
O       1.34934056       0.01348751      17.22203032 
H       1.34901080       0.88098457      17.67871545 
