46
Lattice="8.33952545343259 0.0 0.0 4.169762726716295 7.22224089817956 0.0 0.0 0.0 23.078925359049936" Properties=species:S:1:pos:R:3 pbc="T T T"
Pt       8.33952545       1.60494242       7.00000000 
Pt       2.77984182       1.60494242       7.00000000 
Pt       5.55968364       1.60494242       7.00000000 
Pt       9.72944636       4.01235605       7.00000000 
Pt       4.16976273       4.01235605       7.00000000 
Pt       6.94960454       4.01235605       7.00000000 
Pt      11.11936727       6.41976969       7.00000000 
Pt       5.55968364       6.41976969       7.00000000 
Pt       8.33952545       6.41976969       7.00000000 
Pt       0.00000000       0.00000000       9.26973134 
Pt       2.77984182       0.00000000       9.26973134 
Pt       5.55968364       0.00000000       9.26973134 
Pt       1.38992091       2.40741363       9.26973134 
Pt       4.16976273       2.40741363       9.26973134 
Pt       6.94960454       2.40741363       9.26973134 
Pt       2.77984182       4.81482727       9.26973134 
Pt       5.55968364       4.81482727       9.26973134 
Pt       8.33952545       4.81482727       9.26973134 
Pt       1.38992091       0.80247121      11.59413995 
Pt       4.17232250       0.80007469      11.60340914 
Pt       6.94704477       0.80007469      11.60340914 
Pt       2.77904625       3.21329994      11.60340914 
Pt       5.55968364       3.20988484      11.60293635 
Pt       8.34032102       3.21329994      11.60340914 
Pt       4.16640739       5.61627991      11.60340914 
Pt       6.95295988       5.61627991      11.60340914 
Pt       9.72944636       5.61729848      11.58253208 
Pt      12.48836318       7.21015984      16.03563548 
Pt       6.97052954       7.21015984      16.03563548 
Pt       9.72944636       7.21507559      15.99151741 
Pt       9.72944636       2.43157574      16.03563548 
Pt       4.18808000       2.41798912      15.98703028 
Pt       6.93128727       2.41798912      15.98703028 
Pt      11.11316193       4.81840992      15.99151741 
Pt       5.55968364       4.79367630      15.98703028 
Pt       8.34573079       4.81840992      15.99151741 
Os       8.34495863       1.60180558      13.75530959 
Os       2.77440865       1.60180558      13.75530959 
Os       5.55968364       1.60223112      13.77109195 
Os       9.72944636       3.99045011      13.79085842 
Os       4.16741467       4.01371170      13.77109195 
Os       6.95195260       4.01371170      13.77109195 
Os      11.13833837       6.43072266      13.79085842 
Os       5.55968364       6.42604337      13.75530959 
Os       8.32055435       6.43072266      13.79085842 
S       1.38992091       0.80247121      17.74369921 
