46
Lattice="8.235898954649699 0.0 0.0 4.117949477324849 7.13249771772834 0.0 0.0 0.0 22.966111116450286" Properties=species:S:1:pos:R:3 pbc="T T T"
Rh       8.23589895       1.58499949       7.00000000 
Rh       2.74529965       1.58499949       7.00000000 
Rh       5.49059930       1.58499949       7.00000000 
Rh       9.60854878       3.96249873       7.00000000 
Rh       4.11794948       3.96249873       7.00000000 
Rh       6.86324913       3.96249873       7.00000000 
Rh      10.98119861       6.33999797       7.00000000 
Rh       5.49059930       6.33999797       7.00000000 
Rh       8.23589895       6.33999797       7.00000000 
Rh       0.00000000       0.00000000       9.24152778 
Rh       2.74529965       0.00000000       9.24152778 
Rh       5.49059930       0.00000000       9.24152778 
Rh       1.37264983       2.37749924       9.24152778 
Rh       4.11794948       2.37749924       9.24152778 
Rh       6.86324913       2.37749924       9.24152778 
Rh       2.74529965       4.75499848       9.24152778 
Rh       5.49059930       4.75499848       9.24152778 
Rh       8.23589895       4.75499848       9.24152778 
Rh       1.37264983       0.79249975      11.48305556 
Rh       4.11794948       0.79249975      11.48305556 
Rh       6.86324913       0.79249975      11.48305556 
Rh       2.74529965       3.16999899      11.48305556 
Rh       5.49059930       3.16999899      11.48305556 
Rh       8.23589895       3.16999899      11.48305556 
Rh       4.11794948       5.54749822      11.48305556 
Rh       6.86324913       5.54749822      11.48305556 
Rh       9.60854878       5.54749822      11.48305556 
Rh      12.31755157       7.11154172      15.62974492 
Rh       6.89954599       7.11154172      15.62974492 
Rh       5.49059930       0.00093976      15.52797978 
Rh       9.60854878       2.41941124      15.62974492 
Rh       4.14914844       2.39551197      15.53885224 
Rh       6.83205017       2.39551197      15.53885224 
Rh       2.74611350       4.75452860      15.52797978 
Rh       5.49059930       4.71897302      15.53885224 
Rh       8.23508510       4.75452860      15.52797978 
Co       8.23272365       1.58683276      13.56281525 
Co       2.74847496       1.58683276      13.56281525 
Co       5.49059930       1.57851017      13.54800604 
Co       9.60854878       4.01018083      13.53444401 
Co       4.11232956       3.96574339      13.54800604 
Co       6.86886905       3.96574339      13.54800604 
Co      10.93990470       6.31615692      13.53444401 
Co       5.49059930       6.33633144      13.56281525 
Co       8.27719286       6.31615692      13.53444401 
S       1.37264983       0.79249975      17.19299804 
