46
Lattice="8.826601817517318 0.0 0.0 4.413300908758659 7.644061403059893 0.0 0.0 0.0 23.609186940284456" Properties=species:S:1:pos:R:3 pbc="T T T"
Ag       8.82660182       1.69868031       7.00000000 
Ag       2.94220061       1.69868031       7.00000000 
Ag       5.88440121       1.69868031       7.00000000 
Ag      10.29770212       4.24670078       7.00000000 
Ag       4.41330091       4.24670078       7.00000000 
Ag       7.35550151       4.24670078       7.00000000 
Ag      11.76880242       6.79472125       7.00000000 
Ag       5.88440121       6.79472125       7.00000000 
Ag       8.82660182       6.79472125       7.00000000 
Ag       0.00000000       0.00000000       9.40229674 
Ag       2.94220061       0.00000000       9.40229674 
Ag       5.88440121       0.00000000       9.40229674 
Ag       1.47110030       2.54802047       9.40229674 
Ag       4.41330091       2.54802047       9.40229674 
Ag       7.35550151       2.54802047       9.40229674 
Ag       2.94220061       5.09604094       9.40229674 
Ag       5.88440121       5.09604094       9.40229674 
Ag       8.82660182       5.09604094       9.40229674 
Ag       1.47110030       0.84934016      11.80459347 
Ag       4.41330091       0.84934016      11.80459347 
Ag       7.35550151       0.84934016      11.80459347 
Ag       2.94220061       3.39736062      11.80459347 
Ag       5.88440121       3.39736062      11.80459347 
Ag       8.82660182       3.39736062      11.80459347 
Ag       4.41330091       5.94538109      11.80459347 
Ag       7.35550151       5.94538109      11.80459347 
Ag      10.29770212       5.94538109      11.80459347 
Ag      13.23415290       7.64074174      16.44912332 
Ag       7.36125134       7.64074174      16.44912332 
Ag      10.29770212       7.59367478      16.39068092 
Ag      10.29770212       2.55465980      16.44912332 
Ag       4.46866090       2.57998257      16.35089444 
Ag       7.30014152       2.57998257      16.35089444 
Ag      11.72516633       5.12123425      16.39068092 
Ag       5.88440121       5.03211672      16.35089444 
Ag       8.87023791       5.12123425      16.39068092 
Ir       8.67412457       1.78671309      14.08441510 
Ir       3.09467786       1.78671309      14.08441510 
Ir       5.88440121       1.49196210      14.09687089 
Ir      10.29770212       4.00461200      14.13448769 
Ir       4.23427769       4.35005988      14.09687089 
Ir       7.53452473       4.35005988      14.09687089 
Ir      11.97845745       6.91576564      14.13448769 
Ir       5.88440121       6.61865569      14.08441510 
Ir       8.61694679       6.91576564      14.13448769 
Cl       1.47110030       0.84934016      18.42241741 
