46
Lattice="8.267761186209963 0.0 0.0 4.133880593104982 7.160091219680793 0.0 0.0 0.0 23.000798320623197" Properties=species:S:1:pos:R:3 pbc="T T T"
Pt       8.26776119       1.59113138       7.00000000 
Pt       2.75592040       1.59113138       7.00000000 
Pt       5.51184079       1.59113138       7.00000000 
Pt       9.64572138       3.97782846       7.00000000 
Pt       4.13388059       3.97782846       7.00000000 
Pt       6.88980099       3.97782846       7.00000000 
Pt      11.02368158       6.36452553       7.00000000 
Pt       5.51184079       6.36452553       7.00000000 
Pt       8.26776119       6.36452553       7.00000000 
Pt       0.00000000       0.00000000       9.25019958 
Pt       2.75592040       0.00000000       9.25019958 
Pt       5.51184079       0.00000000       9.25019958 
Pt       1.37796020       2.38669707       9.25019958 
Pt       4.13388059       2.38669707       9.25019958 
Pt       6.88980099       2.38669707       9.25019958 
Pt       2.75592040       4.77339415       9.25019958 
Pt       5.51184079       4.77339415       9.25019958 
Pt       8.26776119       4.77339415       9.25019958 
Pt       1.37577515       0.79430415      11.59545012 
Pt       4.13388059       0.79614192      11.58086021 
Pt       6.89198604       0.79430415      11.59545012 
Pt       2.75641942       3.18197465      11.58086021 
Pt       5.51134176       3.18197465      11.58086021 
Pt       8.26776119       3.17893502      11.58404451 
Pt       4.13388059       5.57148292      11.59545012 
Pt       6.88691908       5.57062371      11.58404451 
Pt       9.64860329       5.57062371      11.58404451 
Pt       0.00000000       0.00000000      16.12961210 
Pt       6.90486045       7.16001433      16.04890860 
Pt       9.63066193       7.16001433      16.04890860 
Pt       9.65318453       2.39977739      16.04890860 
Pt       4.13388059       2.38669707      16.06640724 
Pt       6.88233784       2.39977739      16.04890860 
Pt      11.01608527       4.76039072      16.04890860 
Pt       5.51943711       4.76039072      16.04890860 
Pt       8.26776119       4.77339415      16.06106588 
Rh       8.26776119       1.57344088      13.83248387 
Rh       2.75943112       1.59315830      13.80021466 
Rh       5.50833007       1.59315830      13.80021466 
Rh       9.64353221       3.97909238      13.79087317 
Rh       4.13388059       3.97377462      13.80021466 
Rh       6.89199016       3.97909238      13.79087317 
Rh      11.03900201       6.37337078      13.83248387 
Rh       5.49652036       6.37337078      13.83248387 
Rh       8.26776119       6.36199769      13.79087317 
F       0.00000000       0.00000000      18.12881408 
