47
Lattice="8.394488863534217 0.0 0.0 4.197244431767109 7.269840607606193 0.0 0.0 0.0 23.138761940948747" Properties=species:S:1:pos:R:3 pbc="T T T"
Pd       8.39448886       1.61552014       7.00000000 
Pd       2.79816295       1.61552014       7.00000000 
Pd       5.59632591       1.61552014       7.00000000 
Pd       9.79357034       4.03880034       7.00000000 
Pd       4.19724443       4.03880034       7.00000000 
Pd       6.99540739       4.03880034       7.00000000 
Pd      11.19265182       6.46208054       7.00000000 
Pd       5.59632591       6.46208054       7.00000000 
Pd       8.39448886       6.46208054       7.00000000 
Pd       0.00000000       0.00000000       9.28469049 
Pd       2.79816295       0.00000000       9.28469049 
Pd       5.59632591       0.00000000       9.28469049 
Pd       1.39908148       2.42328020       9.28469049 
Pd       4.19724443       2.42328020       9.28469049 
Pd       6.99540739       2.42328020       9.28469049 
Pd       2.79816295       4.84656041       9.28469049 
Pd       5.59632591       4.84656041       9.28469049 
Pd       8.39448886       4.84656041       9.28469049 
Pd       1.39908148       0.80776007      11.56938097 
Pd       4.19724443       0.80776007      11.56938097 
Pd       6.99540739       0.80776007      11.56938097 
Pd       2.79816295       3.23104027      11.56938097 
Pd       5.59632591       3.23104027      11.56938097 
Pd       8.39448886       3.23104027      11.56938097 
Pd       4.19724443       5.65432047      11.56938097 
Pd       6.99540739       5.65432047      11.56938097 
Pd       9.79357034       5.65432047      11.56938097 
Pd       4.19651071       7.25139585      15.93427639 
Pd       6.98545746       7.25179210      15.93659814 
Pd       9.78774582       7.26236136      15.87754011 
Pd       9.78916897       2.44610103      15.85189190 
Pd       4.19116753       2.41626577      15.87659042 
Pd       6.99378095       2.41670650      15.87664597 
Pd      11.18198853       4.84450912      15.87035198 
Pd       5.59271279       4.80722729      15.86630841 
Pd       8.39673719       4.84456476      15.87091754 
Ru       8.38655034       1.59677380      13.70537717 
Ru       2.80085796       1.59650006      13.70582480 
Ru       5.59380849       1.60995914      13.70773755 
Ru       9.79128362       4.02399430      13.72291346 
Ru       4.19616243       4.03627771      13.71076295 
Ru       6.99209210       4.03701407      13.71092089 
Ru      11.24762217       6.50856100      13.75664537 
Ru       5.59399785       6.45914009      13.69491407 
Ru       8.33321161       6.50912831      13.75553998 
O       1.38592855       0.00013261      17.61671947 
H       1.37948725       0.81461978      18.15568685 
