46
Lattice="8.394488863534217 0.0 0.0 4.197244431767109 7.269840607606193 0.0 0.0 0.0 23.138761940948747" Properties=species:S:1:pos:R:3 pbc="T T T"
Pd       8.39448886       1.61552014       7.00000000 
Pd       2.79816295       1.61552014       7.00000000 
Pd       5.59632591       1.61552014       7.00000000 
Pd       9.79357034       4.03880034       7.00000000 
Pd       4.19724443       4.03880034       7.00000000 
Pd       6.99540739       4.03880034       7.00000000 
Pd      11.19265182       6.46208054       7.00000000 
Pd       5.59632591       6.46208054       7.00000000 
Pd       8.39448886       6.46208054       7.00000000 
Pd       0.00000000       0.00000000       9.28469049 
Pd       2.79816295       0.00000000       9.28469049 
Pd       5.59632591       0.00000000       9.28469049 
Pd       1.39908148       2.42328020       9.28469049 
Pd       4.19724443       2.42328020       9.28469049 
Pd       6.99540739       2.42328020       9.28469049 
Pd       2.79816295       4.84656041       9.28469049 
Pd       5.59632591       4.84656041       9.28469049 
Pd       8.39448886       4.84656041       9.28469049 
Pd       1.39908148       0.80776007      11.56938097 
Pd       4.19724443       0.80776007      11.56938097 
Pd       6.99540739       0.80776007      11.56938097 
Pd       2.79816295       3.23104027      11.56938097 
Pd       5.59632591       3.23104027      11.56938097 
Pd       8.39448886       3.23104027      11.56938097 
Pd       4.19724443       5.65432047      11.56938097 
Pd       6.99540739       5.65432047      11.56938097 
Pd       9.79357034       5.65432047      11.56938097 
Pd      12.56767209       7.25594886      15.91886621 
Pd       7.01946859       7.25594886      15.91886621 
Pd       9.79357034       7.26208157      15.86607035 
Pd       9.79357034       2.45106369      15.91886621 
Pd       4.20684472       2.42882293      15.87587941 
Pd       6.98580709       2.42882293      15.87587941 
Pd      11.18593229       4.85043992      15.86607035 
Pd       5.59632591       4.83547494      15.87587941 
Pd       8.40120839       4.85043992      15.86607035 
Ru       8.39658206       1.61431163      13.70292270 
Ru       2.79606976       1.61431163      13.70292270 
Ru       5.59632591       1.61726005      13.71019693 
Ru       9.79357034       3.96973012      13.74412010 
Ru       4.19875124       4.03793038      13.71019693 
Ru       6.99390058       4.03793038      13.71019693 
Ru      11.25246838       6.49661565      13.74412010 
Ru       5.59632591       6.46449755      13.70292270 
Ru       8.33467230       6.49661565      13.74412010 
Cl       1.39908148       0.80776007      17.84751532 
