46
Lattice="8.310543974898875 0.0 0.0 4.155271987449438 7.197142201530131 0.0 0.0 0.0 23.04737432153926" Properties=species:S:1:pos:R:3 pbc="T T T"
Pd       8.31054397       1.59936493       7.00000000 
Pd       2.77018132       1.59936493       7.00000000 
Pd       5.54036265       1.59936493       7.00000000 
Pd       9.69563464       3.99841233       7.00000000 
Pd       4.15527199       3.99841233       7.00000000 
Pd       6.92545331       3.99841233       7.00000000 
Pd      11.08072530       6.39745973       7.00000000 
Pd       5.54036265       6.39745973       7.00000000 
Pd       8.31054397       6.39745973       7.00000000 
Pd       0.00000000       0.00000000       9.26184358 
Pd       2.77018132       0.00000000       9.26184358 
Pd       5.54036265       0.00000000       9.26184358 
Pd       1.38509066       2.39904740       9.26184358 
Pd       4.15527199       2.39904740       9.26184358 
Pd       6.92545331       2.39904740       9.26184358 
Pd       2.77018132       4.79809480       9.26184358 
Pd       5.54036265       4.79809480       9.26184358 
Pd       8.31054397       4.79809480       9.26184358 
Pd       1.38509066       0.79968247      11.52368716 
Pd       4.15527199       0.79968247      11.52368716 
Pd       6.92545331       0.79968247      11.52368716 
Pd       2.77018132       3.19872987      11.52368716 
Pd       5.54036265       3.19872987      11.52368716 
Pd       8.31054397       3.19872987      11.52368716 
Pd       4.15527199       5.59777727      11.52368716 
Pd       6.92545331       5.59777727      11.52368716 
Pd       9.69563464       5.59777727      11.52368716 
Pd      12.43311947       7.17826487      15.98679788 
Pd       6.95814980       7.17826487      15.98679788 
Pd       9.69563464       7.19504209      15.97385274 
Pd       9.69563464       2.43680205      15.98679788 
Pd       4.16476959       2.40453085      15.95024245 
Pd       6.91595571       2.40453085      15.95024245 
Pd      11.07890655       4.79914485      15.97385274 
Pd       5.54036265       4.78712791      15.95024245 
Pd       8.31236272       4.79914485      15.97385274 
Ir       8.31188070       1.59859318      13.71818140 
Ir       2.76884460       1.59859318      13.71818140 
Ir       5.54036265       1.59591445      13.73156138 
Ir       9.69563464       3.97858338      13.77175853 
Ir       4.15228378       4.00013758      13.73156138 
Ir       6.92844152       4.00013758      13.73156138 
Ir      11.09789768       6.40737421      13.77175853 
Ir       5.54036265       6.39900325      13.71818140 
Ir       8.29337160       6.40737421      13.77175853 
Cl       1.38509066       0.79968247      17.88025596 
