46
Lattice="8.826601817517318 0.0 0.0 4.413300908758659 7.644061403059893 0.0 0.0 0.0 23.609186940284456" Properties=species:S:1:pos:R:3 pbc="T T T"
Ag       8.82660182       1.69868031       7.00000000 
Ag       2.94220061       1.69868031       7.00000000 
Ag       5.88440121       1.69868031       7.00000000 
Ag      10.29770212       4.24670078       7.00000000 
Ag       4.41330091       4.24670078       7.00000000 
Ag       7.35550151       4.24670078       7.00000000 
Ag      11.76880242       6.79472125       7.00000000 
Ag       5.88440121       6.79472125       7.00000000 
Ag       8.82660182       6.79472125       7.00000000 
Ag       0.00000000       0.00000000       9.40229674 
Ag       2.94220061       0.00000000       9.40229674 
Ag       5.88440121       0.00000000       9.40229674 
Ag       1.47110030       2.54802047       9.40229674 
Ag       4.41330091       2.54802047       9.40229674 
Ag       7.35550151       2.54802047       9.40229674 
Ag       2.94220061       5.09604094       9.40229674 
Ag       5.88440121       5.09604094       9.40229674 
Ag       8.82660182       5.09604094       9.40229674 
Ag       1.47110030       0.84934016      11.80459347 
Ag       4.41330091       0.84934016      11.80459347 
Ag       7.35550151       0.84934016      11.80459347 
Ag       2.94220061       3.39736062      11.80459347 
Ag       5.88440121       3.39736062      11.80459347 
Ag       8.82660182       3.39736062      11.80459347 
Ag       4.41330091       5.94538109      11.80459347 
Ag       7.35550151       5.94538109      11.80459347 
Ag      10.29770212       5.94538109      11.80459347 
Ag      13.20832127       7.62582784      16.23928098 
Ag       7.38708297       7.62582784      16.23928098 
Ag      10.29770212       7.61298466      15.73906586 
Ag      10.29770212       2.58448759      16.23928098 
Ag       4.39905948       2.53979818      15.92977862 
Ag       7.36974294       2.53979818      15.92977862 
Ag      11.74188917       5.11157931      15.73906586 
Ag       5.88440121       5.11248552      15.92977862 
Ag       8.85351507       5.11157931      15.73906586 
Ni       8.98031575       1.60993353      13.97552428 
Ni       2.78848667       1.60993353      13.97552428 
Ni       5.88440121       1.83494345      13.86751213 
Ni      10.29770212       3.75769557      13.94469892 
Ni       4.53130824       4.17856921      13.86751213 
Ni       7.23749418       4.17856921      13.86751213 
Ni      12.19229336       7.03922385      13.94469892 
Ni       5.88440121       6.97221481      13.97552428 
Ni       8.40311088       7.03922385      13.94469892 
Cl       1.47110030       0.84934016      18.22230744 
