46
Lattice="8.826601817517318 0.0 0.0 4.413300908758659 7.644061403059893 0.0 0.0 0.0 23.609186940284456" Properties=species:S:1:pos:R:3 pbc="T T T"
Ag       8.82660182       1.69868031       7.00000000 
Ag       2.94220061       1.69868031       7.00000000 
Ag       5.88440121       1.69868031       7.00000000 
Ag      10.29770212       4.24670078       7.00000000 
Ag       4.41330091       4.24670078       7.00000000 
Ag       7.35550151       4.24670078       7.00000000 
Ag      11.76880242       6.79472125       7.00000000 
Ag       5.88440121       6.79472125       7.00000000 
Ag       8.82660182       6.79472125       7.00000000 
Ag       0.00000000       0.00000000       9.40229674 
Ag       2.94220061       0.00000000       9.40229674 
Ag       5.88440121       0.00000000       9.40229674 
Ag       1.47110030       2.54802047       9.40229674 
Ag       4.41330091       2.54802047       9.40229674 
Ag       7.35550151       2.54802047       9.40229674 
Ag       2.94220061       5.09604094       9.40229674 
Ag       5.88440121       5.09604094       9.40229674 
Ag       8.82660182       5.09604094       9.40229674 
Ag       1.47110030       0.84934016      11.80459347 
Ag       4.41330091       0.84934016      11.80459347 
Ag       7.35550151       0.84934016      11.80459347 
Ag       2.94220061       3.39736062      11.80459347 
Ag       5.88440121       3.39736062      11.80459347 
Ag       8.82660182       3.39736062      11.80459347 
Ag       4.41330091       5.94538109      11.80459347 
Ag       7.35550151       5.94538109      11.80459347 
Ag      10.29770212       5.94538109      11.80459347 
Ag      13.21335052       7.62873148      16.23543591 
Ag       7.38205372       7.62873148      16.23543591 
Ag      10.29770212       7.61383619      15.76746675 
Ag      10.29770212       2.57868031      16.23543591 
Ag       4.39749840       2.53889688      15.93776515 
Ag       7.37130403       2.53889688      15.93776515 
Ag      11.74262662       5.11115354      15.76746675 
Ag       5.88440121       5.11428810      15.93776515 
Ag       8.85277762       5.11115354      15.76746675 
Ni       8.95563751       1.62418152      13.95207581 
Ni       2.81316491       1.62418152      13.95207581 
Ni       5.88440121       1.82957341      13.87386534 
Ni      10.29770212       3.78886925      13.94735373 
Ni       4.52665766       4.18125423      13.87386534 
Ni       7.24214476       4.18125423      13.87386534 
Ni      12.16529616       7.02363701      13.94735373 
Ni       5.88440121       6.94371883      13.95207581 
Ni       8.43010808       7.02363701      13.94735373 
O       1.47110030       0.84934016      17.51950656 
