46
Lattice="8.310543974898875 0.0 0.0 4.155271987449438 7.197142201530131 0.0 0.0 0.0 23.04737432153926" Properties=species:S:1:pos:R:3 pbc="T T T"
Pd       8.31054397       1.59936493       7.00000000 
Pd       2.77018132       1.59936493       7.00000000 
Pd       5.54036265       1.59936493       7.00000000 
Pd       9.69563464       3.99841233       7.00000000 
Pd       4.15527199       3.99841233       7.00000000 
Pd       6.92545331       3.99841233       7.00000000 
Pd      11.08072530       6.39745973       7.00000000 
Pd       5.54036265       6.39745973       7.00000000 
Pd       8.31054397       6.39745973       7.00000000 
Pd       0.00000000       0.00000000       9.26184358 
Pd       2.77018132       0.00000000       9.26184358 
Pd       5.54036265       0.00000000       9.26184358 
Pd       1.38509066       2.39904740       9.26184358 
Pd       4.15527199       2.39904740       9.26184358 
Pd       6.92545331       2.39904740       9.26184358 
Pd       2.77018132       4.79809480       9.26184358 
Pd       5.54036265       4.79809480       9.26184358 
Pd       8.31054397       4.79809480       9.26184358 
Pd       1.38509066       0.79968247      11.52368716 
Pd       4.15527199       0.79968247      11.52368716 
Pd       6.92545331       0.79968247      11.52368716 
Pd       2.77018132       3.19872987      11.52368716 
Pd       5.54036265       3.19872987      11.52368716 
Pd       8.31054397       3.19872987      11.52368716 
Pd       4.15527199       5.59777727      11.52368716 
Pd       6.92545331       5.59777727      11.52368716 
Pd       9.69563464       5.59777727      11.52368716 
Pd       8.31202281       1.59851113      13.80435632 
Pd       2.76870249       1.59851113      13.80435632 
Pd       5.54036265       1.59741625      13.79701618 
Pd       9.69563464       3.99129288      13.83184676 
Pd       4.15358438       3.99938668      13.79701618 
Pd       6.92714092       3.99938668      13.79701618 
Pd      11.08689092       6.40101946      13.83184676 
Pd       5.54036265       6.39916734      13.80435632 
Pd       8.30437835       6.40101946      13.83184676 
Pd      12.42300505       7.17242531      16.12101368 
Pd       6.96826423       7.17242531      16.12101368 
Pd       5.54036265       0.00021977      16.10228746 
Pd       9.69563464       2.44848119      16.12101368 
Pd       4.17310412       2.40934279      16.08308609 
Pd       6.90762118       2.40934279      16.08308609 
Pd       2.77037165       4.79798492      16.10228746 
Pd       5.54036265       4.77750403      16.08308609 
Pd       8.31035365       4.79798492      16.10228746 
Cl       1.38509066       0.79968247      17.94202508 
