46
Lattice="8.520855916400066 0.0 0.0 4.260427958200033 7.37927768558939 0.0 0.0 0.0 23.276332963091257" Properties=species:S:1:pos:R:3 pbc="T T T"
Pt       8.52085592       1.63983949       7.00000000 
Pt       2.84028531       1.63983949       7.00000000 
Pt       5.68057061       1.63983949       7.00000000 
Pt       9.94099857       4.09959871       7.00000000 
Pt       4.26042796       4.09959871       7.00000000 
Pt       7.10071326       4.09959871       7.00000000 
Pt      11.36114122       6.55935794       7.00000000 
Pt       5.68057061       6.55935794       7.00000000 
Pt       8.52085592       6.55935794       7.00000000 
Pt       0.00000000       0.00000000       9.31908324 
Pt       2.84028531       0.00000000       9.31908324 
Pt       5.68057061       0.00000000       9.31908324 
Pt       1.42014265       2.45975923       9.31908324 
Pt       4.26042796       2.45975923       9.31908324 
Pt       7.10071326       2.45975923       9.31908324 
Pt       2.84028531       4.91951846       9.31908324 
Pt       5.68057061       4.91951846       9.31908324 
Pt       8.52085592       4.91951846       9.31908324 
Pt       1.42290114       0.82151236      11.59381154 
Pt       4.26042796       0.81711313      11.59821223 
Pt       7.09795477       0.82151236      11.59381154 
Pt       2.83785471       3.28108228      11.59821223 
Pt       5.68300121       3.28108228      11.59821223 
Pt       8.52085592       3.27936771      11.60501063 
Pt       4.26042796       5.73625297      11.59381154 
Pt       7.10044371       5.73959383      11.60501063 
Pt       9.94126813       5.73959383      11.60501063 
Pt       0.00000000       0.00000000      15.96733226 
Pt       7.11725482       7.37377472      15.90305129 
Pt       9.92445701       7.37377472      15.90305129 
Pt       9.94450364       2.47683612      15.90305129 
Pt       4.26042796       2.45975923      15.91214618 
Pt       7.09720819       2.47683612      15.90305129 
Pt      11.34810474       4.90794453      15.90305129 
Pt       5.69360710       4.90794453      15.90305129 
Pt       8.52085592       4.91951846      15.91840947 
Os       8.52085592       1.59096754      13.74371173 
Os       2.83696576       1.63792295      13.72165970 
Os       5.68389015       1.63792295      13.72165970 
Os       9.94547774       4.09701266      13.73054222 
Os       4.26042796       4.10343179      13.72165970 
Os       7.09623409       4.09701266      13.73054222 
Os      11.40346557       6.58379392      13.74371173 
Os       5.63824626       6.58379392      13.74371173 
Os       8.52085592       6.56453005      13.73054222 
F       0.00000000       0.00000000      17.96857111 
