46
Lattice="8.508000715118095 0.0 0.0 4.254000357559048 7.36814475470844 0.0 0.0 0.0 23.262337992566096" Properties=species:S:1:pos:R:3 pbc="T T T"
Pt       8.50800072       1.63736550       7.00000000 
Pt       2.83600024       1.63736550       7.00000000 
Pt       5.67200048       1.63736550       7.00000000 
Pt       9.92600083       4.09341375       7.00000000 
Pt       4.25400036       4.09341375       7.00000000 
Pt       7.09000060       4.09341375       7.00000000 
Pt      11.34400095       6.54946200       7.00000000 
Pt       5.67200048       6.54946200       7.00000000 
Pt       8.50800072       6.54946200       7.00000000 
Pt       0.00000000       0.00000000       9.31558450 
Pt       2.83600024       0.00000000       9.31558450 
Pt       5.67200048       0.00000000       9.31558450 
Pt       1.41800012       2.45604825       9.31558450 
Pt       4.25400036       2.45604825       9.31558450 
Pt       7.09000060       2.45604825       9.31558450 
Pt       2.83600024       4.91209650       9.31558450 
Pt       5.67200048       4.91209650       9.31558450 
Pt       8.50800072       4.91209650       9.31558450 
Pt       1.41800012       0.81868275      11.59053582 
Pt       4.25735117       0.81662007      11.60338650 
Pt       7.08664978       0.81662007      11.60338650 
Pt       2.83588931       3.27866423      11.60338650 
Pt       5.67200048       3.27473100      11.60363423 
Pt       8.50811165       3.27866423      11.60338650 
Pt       4.25053861       5.72890871      11.60338650 
Pt       7.09346234       5.72890871      11.60338650 
Pt       9.92600083       5.73077925      11.59267799 
Pt      12.73830210       7.35446215      15.98406674 
Pt       7.11369957       7.35446215      15.98406674 
Pt       9.92600083       7.35733594      15.92003145 
Pt       9.92600083       2.48341347      15.98406674 
Pt       4.27469314       2.46799523      15.92132492 
Pt       7.06930782       2.46799523      15.92132492 
Pt      11.33464025       4.91750091      15.92003145 
Pt       5.67200048       4.88820254      15.92132492 
Pt       8.51736142       4.91750091      15.92003145 
Os       8.52035047       1.63023537      13.72773573 
Os       2.82365048       1.63023537      13.72773573 
Os       5.67200048       1.63361281      13.74100501 
Os       9.92600083       4.05173155      13.75803816 
Os       4.25075043       4.09529010      13.74100501 
Os       7.09325052       4.09529010      13.74100501 
Os      11.38009880       6.57030311      13.75803816 
Os       5.67200048       6.56372227      13.72773573 
Os       8.47190287       6.57030311      13.75803816 
S       1.41800012       0.81868275      17.65398609 
