46
Lattice="8.508000715118095 0.0 0.0 4.254000357559048 7.36814475470844 0.0 0.0 0.0 23.262337992566096" Properties=species:S:1:pos:R:3 pbc="T T T"
Pt       8.50800072       1.63736550       7.00000000 
Pt       2.83600024       1.63736550       7.00000000 
Pt       5.67200048       1.63736550       7.00000000 
Pt       9.92600083       4.09341375       7.00000000 
Pt       4.25400036       4.09341375       7.00000000 
Pt       7.09000060       4.09341375       7.00000000 
Pt      11.34400095       6.54946200       7.00000000 
Pt       5.67200048       6.54946200       7.00000000 
Pt       8.50800072       6.54946200       7.00000000 
Pt       0.00000000       0.00000000       9.31558450 
Pt       2.83600024       0.00000000       9.31558450 
Pt       5.67200048       0.00000000       9.31558450 
Pt       1.41800012       2.45604825       9.31558450 
Pt       4.25400036       2.45604825       9.31558450 
Pt       7.09000060       2.45604825       9.31558450 
Pt       2.83600024       4.91209650       9.31558450 
Pt       5.67200048       4.91209650       9.31558450 
Pt       8.50800072       4.91209650       9.31558450 
Pt       1.41800012       0.81868275      11.62552475 
Pt       4.24648095       0.82024217      11.58788610 
Pt       7.09752000       0.82024217      11.58788610 
Pt       2.83359104       3.26743930      11.58788610 
Pt       5.67200048       3.27473100      11.57337427 
Pt       8.51040992       3.26743930      11.58788610 
Pt       4.25911056       5.73651154      11.58788610 
Pt       7.08489039       5.73651154      11.58788610 
Pt       9.92600083       5.73077925      11.58852082 
Pt      12.62027401       7.28631860      16.40876479 
Pt       7.23172766       7.28631860      16.40876479 
Pt       5.67200048       0.00240020      16.27672809 
Pt       9.92600083       2.61970057      16.40876479 
Pt       4.29217521       2.47808851      16.31372722 
Pt       7.05182574       2.47808851      16.31372722 
Pt       2.83807887       4.91089640      16.27672809 
Pt       5.67200048       4.86801598      16.31372722 
Pt       8.50592208       4.91089640      16.27672809 
Ag       8.51627861       1.63258626      14.02535246 
Ag       2.82772235       1.63258626      14.02535246 
Ag       5.67200048       1.64079587      13.93365993 
Ag       9.92600083       4.08303757      13.94373379 
Ag       4.25697114       4.09169857      13.93365993 
Ag       7.08702981       4.09169857      13.93365993 
Ag      11.35298699       6.55465009      13.94373379 
Ag       5.67200048       6.55902049      14.02535246 
Ag       8.49901468       6.55465009      13.94373379 
Cl       1.41800012       0.81868275      18.06058923 
