46
Lattice="8.508000715118095 0.0 0.0 4.254000357559048 7.36814475470844 0.0 0.0 0.0 23.262337992566096" Properties=species:S:1:pos:R:3 pbc="T T T"
Pt       8.50800072       1.63736550       7.00000000 
Pt       2.83600024       1.63736550       7.00000000 
Pt       5.67200048       1.63736550       7.00000000 
Pt       9.92600083       4.09341375       7.00000000 
Pt       4.25400036       4.09341375       7.00000000 
Pt       7.09000060       4.09341375       7.00000000 
Pt      11.34400095       6.54946200       7.00000000 
Pt       5.67200048       6.54946200       7.00000000 
Pt       8.50800072       6.54946200       7.00000000 
Pt       0.00000000       0.00000000       9.31558450 
Pt       2.83600024       0.00000000       9.31558450 
Pt       5.67200048       0.00000000       9.31558450 
Pt       1.41800012       2.45604825       9.31558450 
Pt       4.25400036       2.45604825       9.31558450 
Pt       7.09000060       2.45604825       9.31558450 
Pt       2.83600024       4.91209650       9.31558450 
Pt       5.67200048       4.91209650       9.31558450 
Pt       8.50800072       4.91209650       9.31558450 
Pt       1.41800012       0.81868275      11.62315932 
Pt       4.24660196       0.82034469      11.59302195 
Pt       7.09739899       0.82034469      11.59302195 
Pt       2.83374032       3.26749283      11.59302195 
Pt       5.67200048       3.27473100      11.58018231 
Pt       8.51026064       3.26749283      11.59302195 
Pt       4.25913883       5.73635549      11.59302195 
Pt       7.08486212       5.73635549      11.59302195 
Pt       9.92600083       5.73077925      11.57609982 
Pt      12.61804656       7.28503258      16.42901298 
Pt       7.23395511       7.28503258      16.42901298 
Pt       5.67200048       0.00047493      16.30761583 
Pt       9.92600083       2.62227260      16.42901298 
Pt       4.30717473       2.48674849      16.32733881 
Pt       7.03682623       2.48674849      16.32733881 
Pt       2.83641154       4.91185904      16.30761583 
Pt       5.67200048       4.85069603      16.32733881 
Pt       8.50758942       4.91185904      16.30761583 
Ag       8.51252307       1.63475452      14.01813815 
Ag       2.83147788       1.63475452      14.01813815 
Ag       5.67200048       1.63804856      13.94024047 
Ag       9.92600083       4.09561585      13.94443200 
Ag       4.25459191       4.09307222      13.94024047 
Ag       7.08940905       4.09307222      13.94024047 
Ag      11.34209388       6.54836096      13.94443200 
Ag       5.67200048       6.55468397      14.01813815 
Ag       8.50990779       6.54836096      13.94443200 
S       1.41800012       0.81868275      17.75891205 
