47
Lattice="8.592238345960848 0.0 0.0 4.296119172980424 7.44109668297288 0.0 0.0 0.0 23.354044309324177" Properties=species:S:1:pos:R:3 pbc="T T T"
Pt       8.59223835       1.65357704       7.00000000 
Pt       2.86407945       1.65357704       7.00000000 
Pt       5.72815890       1.65357704       7.00000000 
Pt      10.02427807       4.13394260       7.00000000 
Pt       4.29611917       4.13394260       7.00000000 
Pt       7.16019862       4.13394260       7.00000000 
Pt      11.45631779       6.61430816       7.00000000 
Pt       5.72815890       6.61430816       7.00000000 
Pt       8.59223835       6.61430816       7.00000000 
Pt       0.00000000       0.00000000       9.33851108 
Pt       2.86407945       0.00000000       9.33851108 
Pt       5.72815890       0.00000000       9.33851108 
Pt       1.43203972       2.48036556       9.33851108 
Pt       4.29611917       2.48036556       9.33851108 
Pt       7.16019862       2.48036556       9.33851108 
Pt       2.86407945       4.96073112       9.33851108 
Pt       5.72815890       4.96073112       9.33851108 
Pt       8.59223835       4.96073112       9.33851108 
Pt       1.42673884       0.82372805      11.56531671 
Pt       4.29071327       0.82262067      11.55882184 
Pt       7.15396664       0.82491600      11.56101570 
Pt       2.85776704       3.30455636      11.55882184 
Pt       5.72600536       3.30591073      11.55938443 
Pt       8.58811762       3.29446767      11.57293132 
Pt       4.29138154       5.78305884      11.56101570 
Pt       7.14715151       5.79029419      11.57293132 
Pt      10.02035601       5.78525524      11.55754138 
Pt       0.02366353       0.01366215      15.98548173 
Pt       7.18072549       7.43293814      15.87871481 
Pt       9.99335746       7.43226082      15.88127684 
Pt      10.02747600       2.50222162      15.87871481 
Pt       4.28814087       2.47575929      15.90282239 
Pt       7.14397803       2.50195540      15.88565527 
Pt      11.43320541       4.93837102      15.88127684 
Pt       5.73874595       4.93588876      15.88565527 
Pt       8.58590896       4.95707685      15.90263273 
Ir       8.57594767       1.58986476      13.73842676 
Ir       2.86363567       1.65332083      13.69776265 
Ir       5.71507291       1.65344650      13.69889494 
Ir      10.01576113       4.13956497      13.69369637 
Ir       4.28946313       4.12267507      13.69889494 
Ir       7.15694356       4.13206329      13.69678222 
Ir      11.47161905       6.62314235      13.71986642 
Ir       5.66483711       6.63205616      13.73842676 
Ir       8.59284899       6.60412109      13.69369637 
O      12.76867828       7.37199984      17.97332348 
H       0.66433789       0.38355566      18.34420856 
