46
Lattice="8.592238345960848 0.0 0.0 4.296119172980424 7.44109668297288 0.0 0.0 0.0 23.354044309324177" Properties=species:S:1:pos:R:3 pbc="T T T"
Pt       8.59223835       1.65357704       7.00000000 
Pt       2.86407945       1.65357704       7.00000000 
Pt       5.72815890       1.65357704       7.00000000 
Pt      10.02427807       4.13394260       7.00000000 
Pt       4.29611917       4.13394260       7.00000000 
Pt       7.16019862       4.13394260       7.00000000 
Pt      11.45631779       6.61430816       7.00000000 
Pt       5.72815890       6.61430816       7.00000000 
Pt       8.59223835       6.61430816       7.00000000 
Pt       0.00000000       0.00000000       9.33851108 
Pt       2.86407945       0.00000000       9.33851108 
Pt       5.72815890       0.00000000       9.33851108 
Pt       1.43203972       2.48036556       9.33851108 
Pt       4.29611917       2.48036556       9.33851108 
Pt       7.16019862       2.48036556       9.33851108 
Pt       2.86407945       4.96073112       9.33851108 
Pt       5.72815890       4.96073112       9.33851108 
Pt       8.59223835       4.96073112       9.33851108 
Pt       1.43203972       0.82678852      11.55951668 
Pt       4.29940500       0.82142493      11.57813079 
Pt       7.15691279       0.82142493      11.57813079 
Pt       2.86107735       3.31268149      11.57813079 
Pt       5.72815890       3.30715408      11.57716038 
Pt       8.59524044       3.31268149      11.57813079 
Pt       4.28983125       5.78735583      11.57813079 
Pt       7.16648654       5.78735583      11.57813079 
Pt      10.02427807       5.78751964      11.58069717 
Pt      12.80282544       7.39171472      15.99467203 
Pt       7.24573070       7.39171472      15.99467203 
Pt      10.02427807       7.43301425      15.92112691 
Pt      10.02427807       2.57912950      15.99467203 
Pt       4.31177742       2.48940585      15.91203890 
Pt       7.14454038       2.48940585      15.91203890 
Pt      11.44931821       4.96477234      15.92112691 
Pt       5.72815890       4.94265054      15.91203890 
Pt       8.59923793       4.96477234      15.92112691 
Ir       8.61123986       1.64260651      13.72399941 
Ir       2.84507793       1.64260651      13.72399941 
Ir       5.72815890       1.65136579      13.72500389 
Ir      10.02427807       4.09394315      13.74858669 
Ir       4.29420418       4.13504823      13.72500389 
Ir       7.16211362       4.13504823      13.72500389 
Ir      11.49095834       6.63430789      13.74858669 
Ir       5.72815890       6.63624923      13.72399941 
Ir       8.55759780       6.63430789      13.74858669 
O       1.43203972       0.82678852      17.11292641 
