46
Lattice="8.33952545343259 0.0 0.0 4.169762726716295 7.22224089817956 0.0 0.0 0.0 23.078925359049936" Properties=species:S:1:pos:R:3 pbc="T T T"
Pt       8.33952545       1.60494242       7.00000000 
Pt       2.77984182       1.60494242       7.00000000 
Pt       5.55968364       1.60494242       7.00000000 
Pt       9.72944636       4.01235605       7.00000000 
Pt       4.16976273       4.01235605       7.00000000 
Pt       6.94960454       4.01235605       7.00000000 
Pt      11.11936727       6.41976969       7.00000000 
Pt       5.55968364       6.41976969       7.00000000 
Pt       8.33952545       6.41976969       7.00000000 
Pt       0.00000000       0.00000000       9.26973134 
Pt       2.77984182       0.00000000       9.26973134 
Pt       5.55968364       0.00000000       9.26973134 
Pt       1.38992091       2.40741363       9.26973134 
Pt       4.16976273       2.40741363       9.26973134 
Pt       6.94960454       2.40741363       9.26973134 
Pt       2.77984182       4.81482727       9.26973134 
Pt       5.55968364       4.81482727       9.26973134 
Pt       8.33952545       4.81482727       9.26973134 
Pt       1.38992091       0.80247121      11.65480537 
Pt       4.17189590       0.80046873      11.65686225 
Pt       6.94747137       0.80046873      11.65686225 
Pt       2.77917421       3.21273347      11.65686225 
Pt       5.55968364       3.20988484      11.65774383 
Pt       8.34019307       3.21273347      11.65686225 
Pt       4.16696194       5.61645233      11.65686225 
Pt       6.95240533       5.61645233      11.65686225 
Pt       9.72944636       5.61729848      11.64422079 
Pt       0.01845255       0.01065359      16.10694918 
Pt       2.76138926       0.01065359      16.10694918 
Pt       9.72944636       7.21846401      16.09832516 
Pt       1.38992091       2.38610646      16.10694918 
Pt       4.18314824       2.41514176      16.09520693 
Pt       6.93621903       2.41514176      16.09520693 
Pt      11.11609639       4.81671571      16.09832516 
Pt       5.55968364       4.79937101      16.09520693 
Pt       8.34279633       4.81671571      16.09832516 
Mo       8.34187481       1.60358602      13.85758637 
Mo       2.77749246       1.60358602      13.85758637 
Mo       5.55968364       1.60197965      13.87010912 
Mo       9.72944636       3.99495288      13.88146136 
Mo       4.16719689       4.01383744      13.87010912 
Mo       6.95217038       4.01383744      13.87010912 
Mo      11.13443886       6.42847127      13.88146136 
Mo       5.55968364       6.42248249      13.85758637 
Mo       8.32445386       6.42847127      13.88146136 
O       1.38992091       0.80247121      17.61297319 
