46
Lattice="8.592238345960848 0.0 0.0 4.296119172980424 7.44109668297288 0.0 0.0 0.0 23.354044309324177" Properties=species:S:1:pos:R:3 pbc="T T T"
Pt       8.59223835       1.65357704       7.00000000 
Pt       2.86407945       1.65357704       7.00000000 
Pt       5.72815890       1.65357704       7.00000000 
Pt      10.02427807       4.13394260       7.00000000 
Pt       4.29611917       4.13394260       7.00000000 
Pt       7.16019862       4.13394260       7.00000000 
Pt      11.45631779       6.61430816       7.00000000 
Pt       5.72815890       6.61430816       7.00000000 
Pt       8.59223835       6.61430816       7.00000000 
Pt       0.00000000       0.00000000       9.33851108 
Pt       2.86407945       0.00000000       9.33851108 
Pt       5.72815890       0.00000000       9.33851108 
Pt       1.43203972       2.48036556       9.33851108 
Pt       4.29611917       2.48036556       9.33851108 
Pt       7.16019862       2.48036556       9.33851108 
Pt       2.86407945       4.96073112       9.33851108 
Pt       5.72815890       4.96073112       9.33851108 
Pt       8.59223835       4.96073112       9.33851108 
Pt       1.43203972       0.82678852      11.62078071 
Pt       4.30333692       0.82036395      11.63118647 
Pt       7.15298088       0.82036395      11.63118647 
Pt       2.86212448       3.31661712      11.63118647 
Pt       5.72815890       3.30715408      11.61679675 
Pt       8.59419331       3.31661712      11.63118647 
Pt       4.28694646       5.78448118      11.63118647 
Pt       7.16937133       5.78448118      11.63118647 
Pt      10.02427807       5.78751964      11.65167950 
Pt       0.02946990       0.01701445      15.96926365 
Pt       2.83460955       0.01701445      15.96926365 
Pt      10.02427807       7.42788707      15.92539782 
Pt       1.43203972       2.44633665      15.96926365 
Pt       4.31584551       2.49175457      15.93659730 
Pt       7.14047228       2.49175457      15.93659730 
Pt      11.44487794       4.96733593      15.92539782 
Pt       5.72815890       4.93795311      15.93659730 
Pt       8.60367820       4.96733593      15.92539782 
Re       8.60184328       1.64803163      13.75419763 
Re       2.85447452       1.64803163      13.75419763 
Re       5.72815890       1.67161983      13.76286302 
Re      10.02427807       4.04920631      13.80496284 
Re       4.31174469       4.12492121      13.76286302 
Re       7.14457311       4.12492121      13.76286302 
Re      11.52970158       6.65667631      13.80496284 
Re       5.72815890       6.62539898      13.75419763 
Re       8.51885456       6.65667631      13.80496284 
O       1.43203972       0.82678852      17.40613711 
