46
Lattice="7.991268292630401 0.0 0.0 3.9956341463152003 6.920641349875024 0.0 0.0 0.0 22.699790984278494" Properties=species:S:1:pos:R:3 pbc="T T T"
Rh       7.99126829       1.53792030       7.00000000 
Rh       2.66375610       1.53792030       7.00000000 
Rh       5.32751220       1.53792030       7.00000000 
Rh       9.32314634       3.84480075       7.00000000 
Rh       3.99563415       3.84480075       7.00000000 
Rh       6.65939024       3.84480075       7.00000000 
Rh      10.65502439       6.15168120       7.00000000 
Rh       5.32751220       6.15168120       7.00000000 
Rh       7.99126829       6.15168120       7.00000000 
Rh       0.00000000       0.00000000       9.17494775 
Rh       2.66375610       0.00000000       9.17494775 
Rh       5.32751220       0.00000000       9.17494775 
Rh       1.33187805       2.30688045       9.17494775 
Rh       3.99563415       2.30688045       9.17494775 
Rh       6.65939024       2.30688045       9.17494775 
Rh       2.66375610       4.61376090       9.17494775 
Rh       5.32751220       4.61376090       9.17494775 
Rh       7.99126829       4.61376090       9.17494775 
Rh       1.33187805       0.76896015      11.34989549 
Rh       3.99563415       0.76896015      11.34989549 
Rh       6.65939024       0.76896015      11.34989549 
Rh       2.66375610       3.07584060      11.34989549 
Rh       5.32751220       3.07584060      11.34989549 
Rh       7.99126829       3.07584060      11.34989549 
Rh       3.99563415       5.38272105      11.34989549 
Rh       6.65939024       5.38272105      11.34989549 
Rh       9.32314634       5.38272105      11.34989549 
Rh      11.96710252       6.90920986      15.88192018 
Rh       6.67919016       6.90920986      15.88192018 
Rh       9.32314634       6.91824297      15.80310826 
Rh       9.32314634       2.32974343      15.88192018 
Rh       4.01707165       2.31925740      15.81241301 
Rh       6.63795274       2.31925740      15.81241301 
Rh      10.65294733       4.61496009      15.80310826 
Rh       5.32751220       4.58900700      15.81241301 
Rh       7.99334535       4.61496009      15.80310826 
Ir       7.99430488       1.53616712      13.59453632 
Ir       2.66071951       1.53616712      13.59453632 
Ir       5.32751220       1.53516991      13.60410341 
Ir       9.32314634       3.84209551      13.60347953 
Ir       3.99325224       3.84617594      13.60410341 
Ir       6.66177215       3.84617594      13.60410341 
Ir      10.65736719       6.15303382      13.60347953 
Ir       5.32751220       6.15518755      13.59453632 
Ir       7.98892549       6.15303382      13.60347953 
S       1.33187805       0.76896015      17.53702982 
