46
Lattice="8.310543974898875 0.0 0.0 4.155271987449438 7.197142201530131 0.0 0.0 0.0 23.04737432153926" Properties=species:S:1:pos:R:3 pbc="T T T"
Pd       8.31054397       1.59936493       7.00000000 
Pd       2.77018132       1.59936493       7.00000000 
Pd       5.54036265       1.59936493       7.00000000 
Pd       9.69563464       3.99841233       7.00000000 
Pd       4.15527199       3.99841233       7.00000000 
Pd       6.92545331       3.99841233       7.00000000 
Pd      11.08072530       6.39745973       7.00000000 
Pd       5.54036265       6.39745973       7.00000000 
Pd       8.31054397       6.39745973       7.00000000 
Pd       0.00000000       0.00000000       9.26184358 
Pd       2.77018132       0.00000000       9.26184358 
Pd       5.54036265       0.00000000       9.26184358 
Pd       1.38509066       2.39904740       9.26184358 
Pd       4.15527199       2.39904740       9.26184358 
Pd       6.92545331       2.39904740       9.26184358 
Pd       2.77018132       4.79809480       9.26184358 
Pd       5.54036265       4.79809480       9.26184358 
Pd       8.31054397       4.79809480       9.26184358 
Pd       1.38509066       0.79968247      11.52368716 
Pd       4.15527199       0.79968247      11.52368716 
Pd       6.92545331       0.79968247      11.52368716 
Pd       2.77018132       3.19872987      11.52368716 
Pd       5.54036265       3.19872987      11.52368716 
Pd       8.31054397       3.19872987      11.52368716 
Pd       4.15527199       5.59777727      11.52368716 
Pd       6.92545331       5.59777727      11.52368716 
Pd       9.69563464       5.59777727      11.52368716 
Pd      12.44718398       7.18638502      15.92781831 
Pd       6.94408529       7.18638502      15.92781831 
Pd       9.69563464       7.19349334      15.90710836 
Pd       9.69563464       2.42056176      15.92781831 
Pd       4.16137976       2.40257372      15.89777490 
Pd       6.91934554       2.40257372      15.89777490 
Pd      11.07756529       4.79991923      15.90710836 
Pd       5.54036265       4.79104216      15.89777490 
Pd       8.31370398       4.79991923      15.90710836 
Os       8.31313709       1.59786780      13.68075242 
Os       2.76758821       1.59786780      13.68075242 
Os       5.54036265       1.59968057      13.70212115 
Os       9.69563464       3.96365908      13.74173406 
Os       4.15554534       3.99825452      13.70212115 
Os       6.92517996       3.99825452      13.70212115 
Os      11.11082250       6.41483636      13.74173406 
Os       5.54036265       6.40045400      13.68075242 
Os       8.28044677       6.41483636      13.74173406 
Cl       1.38509066       0.79968247      17.89170727 
