46
Lattice="8.738335799342142 0.0 0.0 4.369167899671071 7.567620789029295 0.0 0.0 0.0 23.51309507088161" Properties=species:S:1:pos:R:3 pbc="T T T"
Ag       8.73833580       1.68169351       7.00000000 
Ag       2.91277860       1.68169351       7.00000000 
Ag       5.82555720       1.68169351       7.00000000 
Ag      10.19472510       4.20423377       7.00000000 
Ag       4.36916790       4.20423377       7.00000000 
Ag       7.28194650       4.20423377       7.00000000 
Ag      11.65111440       6.72677403       7.00000000 
Ag       5.82555720       6.72677403       7.00000000 
Ag       8.73833580       6.72677403       7.00000000 
Ag       0.00000000       0.00000000       9.37827377 
Ag       2.91277860       0.00000000       9.37827377 
Ag       5.82555720       0.00000000       9.37827377 
Ag       1.45638930       2.52254026       9.37827377 
Ag       4.36916790       2.52254026       9.37827377 
Ag       7.28194650       2.52254026       9.37827377 
Ag       2.91277860       5.04508053       9.37827377 
Ag       5.82555720       5.04508053       9.37827377 
Ag       8.73833580       5.04508053       9.37827377 
Ag       1.45638930       0.84084675      11.75654754 
Ag       4.36916790       0.84084675      11.75654754 
Ag       7.28194650       0.84084675      11.75654754 
Ag       2.91277860       3.36338702      11.75654754 
Ag       5.82555720       3.36338702      11.75654754 
Ag       8.73833580       3.36338702      11.75654754 
Ag       4.36916790       5.88592728      11.75654754 
Ag       7.28194650       5.88592728      11.75654754 
Ag      10.19472510       5.88592728      11.75654754 
Ag      13.09837190       7.56234854      16.43037575 
Ag       7.29107830       7.56234854      16.43037575 
Ag      10.19472510       7.53069014      16.38351712 
Ag      10.19472510       2.53308476      16.43037575 
Ag       4.41473794       2.54885014      16.33865619 
Ag       7.23637646       2.54885014      16.33865619 
Ag      11.61913152       5.06354585      16.38351712 
Ag       5.82555720       4.99246078      16.33865619 
Ag       8.77031868       5.06354585      16.38351712 
Ir       8.60779525       1.75706113      14.05410238 
Ir       3.04331915       1.75706113      14.05410238 
Ir       5.82555720       1.49796805      14.06495213 
Ir      10.19472510       3.99659993      14.10501773 
Ir       4.21005698       4.29609650      14.06495213 
Ir       7.44105742       4.29609650      14.06495213 
Ir      11.83093058       6.83059096      14.10501773 
Ir       5.82555720       6.57603879      14.05410238 
Ir       8.55851962       6.83059096      14.10501773 
Cl       1.45638930       0.84084675      18.41927459 
