46
Lattice="8.605220826463434 0.0 0.0 4.302610413231717 7.452339840892254 0.0 0.0 0.0 23.36817784391394" Properties=species:S:1:pos:R:3 pbc="T T T"
Pt       8.60522083       1.65607552       7.00000000 
Pt       2.86840694       1.65607552       7.00000000 
Pt       5.73681388       1.65607552       7.00000000 
Pt      10.03942430       4.14018880       7.00000000 
Pt       4.30261041       4.14018880       7.00000000 
Pt       7.17101736       4.14018880       7.00000000 
Pt      11.47362777       6.62430208       7.00000000 
Pt       5.73681388       6.62430208       7.00000000 
Pt       8.60522083       6.62430208       7.00000000 
Pt       0.00000000       0.00000000       9.34204446 
Pt       2.86840694       0.00000000       9.34204446 
Pt       5.73681388       0.00000000       9.34204446 
Pt       1.43420347       2.48411328       9.34204446 
Pt       4.30261041       2.48411328       9.34204446 
Pt       7.17101736       2.48411328       9.34204446 
Pt       2.86840694       4.96822656       9.34204446 
Pt       5.73681388       4.96822656       9.34204446 
Pt       8.60522083       4.96822656       9.34204446 
Pt       1.43983124       0.83128696      11.64412643 
Pt       4.30261041       0.82337722      11.64955593 
Pt       7.16538958       0.83128696      11.64412643 
Pt       2.86437080       3.31448131      11.64955593 
Pt       5.74085003       3.31448131      11.64955593 
Pt       8.60522083       3.31864467      11.65509617 
Pt       4.30261041       5.78976593      11.64412643 
Pt       7.17664100       5.79301751      11.65509617 
Pt      10.03380065       5.79301751      11.65509617 
Pt       0.00000000       0.00000000      16.00401057 
Pt       7.18755030       7.44769191      15.98354503 
Pt      10.02289136       7.44769191      15.98354503 
Pt      10.04366554       2.50075519      15.98354503 
Pt       4.30261041       2.48411328      15.99247163 
Pt       7.16677611       2.50075519      15.98354503 
Pt      11.46133607       4.95623258      15.98354503 
Pt       5.74910558       4.95623258      15.98354503 
Pt       8.60522083       4.96822656      15.98739643 
Mo       8.60522083       1.60044503      13.82720531 
Mo       2.87099559       1.65757008      13.81498459 
Mo       5.73422524       1.65757008      13.81498459 
Mo      10.04803870       4.13521527      13.82824224 
Mo       4.30261041       4.13719969      13.81498459 
Mo       7.16240295       4.13521527      13.82824224 
Mo      11.52180518       6.65211733      13.82720531 
Mo       5.68863647       6.65211733      13.82720531 
Mo       8.60522083       6.63424913      13.82824224 
F       0.00000000       0.00000000      18.03842980 
