46
Lattice="8.65006978116697 0.0 0.0 4.325034890583485 7.491180174998695 0.0 0.0 0.0 23.417003201478764" Properties=species:S:1:pos:R:3 pbc="T T T"
Ag       8.65006978       1.66470671       7.00000000 
Ag       2.88335659       1.66470671       7.00000000 
Ag       5.76671319       1.66470671       7.00000000 
Ag      10.09174808       4.16176676       7.00000000 
Ag       4.32503489       4.16176676       7.00000000 
Ag       7.20839148       4.16176676       7.00000000 
Ag      11.53342637       6.65882682       7.00000000 
Ag       5.76671319       6.65882682       7.00000000 
Ag       8.65006978       6.65882682       7.00000000 
Ag       0.00000000       0.00000000       9.35425080 
Ag       2.88335659       0.00000000       9.35425080 
Ag       5.76671319       0.00000000       9.35425080 
Ag       1.44167830       2.49706006       9.35425080 
Ag       4.32503489       2.49706006       9.35425080 
Ag       7.20839148       2.49706006       9.35425080 
Ag       2.88335659       4.99412012       9.35425080 
Ag       5.76671319       4.99412012       9.35425080 
Ag       8.65006978       4.99412012       9.35425080 
Ag       1.44167830       0.83235335      11.70850160 
Ag       4.32503489       0.83235335      11.70850160 
Ag       7.20839148       0.83235335      11.70850160 
Ag       2.88335659       3.32941341      11.70850160 
Ag       5.76671319       3.32941341      11.70850160 
Ag       8.65006978       3.32941341      11.70850160 
Ag       4.32503489       5.82647347      11.70850160 
Ag       7.20839148       5.82647347      11.70850160 
Ag      10.09174808       5.82647347      11.70850160 
Ag      12.92263747       7.46088822      16.36336174 
Ag       7.26085868       7.46088822      16.36336174 
Ag      10.09174808       7.49061475      16.32103871 
Ag      10.09174808       2.55764396      16.36336174 
Ag       4.33654257       2.50370402      16.29641505 
Ag       7.19688381       2.50370402      16.29641505 
Ag      11.53293670       4.99440283      16.32103871 
Ag       5.76671319       4.98083220      16.29641505 
Ag       8.65055946       4.99440283      16.32103871 
Pd       8.65514127       1.66177868      14.00559713 
Pd       2.87828511       1.66177868      14.00559713 
Pd       5.76671319       1.65718988      14.01144754 
Pd      10.09174808       4.15025127      14.03471410 
Pd       4.31852513       4.16552518      14.01144754 
Pd       7.21490125       4.16552518      14.01144754 
Pd      11.54339909       6.66458457      14.03471410 
Pd       5.76671319       6.66468287      14.00559713 
Pd       8.64009707       6.66458457      14.03471410 
O       1.44167830       0.83235335      17.63995838 
