47
Lattice="8.91486783569249 0.0 0.0 4.457433917846245 7.720502017090492 0.0 0.0 0.0 23.7052788096873" Properties=species:S:1:pos:R:3 pbc="T T T"
Ag       8.91486784       1.71566711       7.00000000 
Ag       2.97162261       1.71566711       7.00000000 
Ag       5.94324522       1.71566711       7.00000000 
Ag      10.40067914       4.28916779       7.00000000 
Ag       4.45743392       4.28916779       7.00000000 
Ag       7.42905653       4.28916779       7.00000000 
Ag      11.88649045       6.86266846       7.00000000 
Ag       5.94324522       6.86266846       7.00000000 
Ag       8.91486784       6.86266846       7.00000000 
Ag       0.00000000       0.00000000       9.42631970 
Ag       2.97162261       0.00000000       9.42631970 
Ag       5.94324522       0.00000000       9.42631970 
Ag       1.48581131       2.57350067       9.42631970 
Ag       4.45743392       2.57350067       9.42631970 
Ag       7.42905653       2.57350067       9.42631970 
Ag       2.97162261       5.14700134       9.42631970 
Ag       5.94324522       5.14700134       9.42631970 
Ag       8.91486784       5.14700134       9.42631970 
Ag       1.48581131       0.85783356      11.85263940 
Ag       4.45743392       0.85783356      11.85263940 
Ag       7.42905653       0.85783356      11.85263940 
Ag       2.97162261       3.43133423      11.85263940 
Ag       5.94324522       3.43133423      11.85263940 
Ag       8.91486784       3.43133423      11.85263940 
Ag       4.45743392       6.00483490      11.85263940 
Ag       7.42905653       6.00483490      11.85263940 
Ag      10.40067914       6.00483490      11.85263940 
Ag      13.28686400       7.67117450      16.44834447 
Ag       7.55083200       7.67153491      16.43075912 
Ag       5.96110075       0.00527945      16.40822443 
Ag      10.41916012       2.70344488      16.43075912 
Ag       4.50277364       2.59967758      16.37885298 
Ag       7.42043674       2.59106242      16.37393051 
Ag       2.98512251       5.15982496      16.40822443 
Ag       5.95414424       5.13075551      16.37393051 
Ag       8.92404785       5.15230143      16.41084133 
Pt       8.94363196       1.70506311      14.14221230 
Pt       2.96283336       1.71059264      14.13824739 
Pt       5.94936150       1.70152610      14.12159165 
Pt      10.40660497       4.27994468      14.13630728 
Pt       4.44824558       4.30153515      14.12159165 
Pt       7.45250936       4.30270829      14.12155199 
Pt      11.91567811       6.87951997      14.13812389 
Pt       5.94844395       6.89288092      14.14221230 
Pt       8.90984331       6.87241193      14.13630728 
O       1.52474641       0.88031275      17.79215144 
H       1.56907244       0.90590439      18.76481270 
