47
Lattice="8.305745548281743 0.0 0.0 4.152872774140872 7.1929866421815 0.0 0.0 0.0 23.042150456303634" Properties=species:S:1:pos:R:3 pbc="T T T"
Ir       8.30574555       1.59844148       7.00000000 
Ir       2.76858185       1.59844148       7.00000000 
Ir       5.53716370       1.59844148       7.00000000 
Ir       9.69003647       3.99610369       7.00000000 
Ir       4.15287277       3.99610369       7.00000000 
Ir       6.92145462       3.99610369       7.00000000 
Ir      11.07432740       6.39376590       7.00000000 
Ir       5.53716370       6.39376590       7.00000000 
Ir       8.30574555       6.39376590       7.00000000 
Ir       0.00000000       0.00000000       9.26053761 
Ir       2.76858185       0.00000000       9.26053761 
Ir       5.53716370       0.00000000       9.26053761 
Ir       1.38429092       2.39766221       9.26053761 
Ir       4.15287277       2.39766221       9.26053761 
Ir       6.92145462       2.39766221       9.26053761 
Ir       2.76858185       4.79532443       9.26053761 
Ir       5.53716370       4.79532443       9.26053761 
Ir       8.30574555       4.79532443       9.26053761 
Ir       1.38429092       0.79922074      11.52107523 
Ir       4.15287277       0.79922074      11.52107523 
Ir       6.92145462       0.79922074      11.52107523 
Ir       2.76858185       3.19688295      11.52107523 
Ir       5.53716370       3.19688295      11.52107523 
Ir       8.30574555       3.19688295      11.52107523 
Ir       4.15287277       5.59454517      11.52107523 
Ir       6.92145462       5.59454517      11.52107523 
Ir       9.69003647       5.59454517      11.52107523 
Ir       0.01583422       0.00914189      15.75184326 
Ir       6.94880674       7.19255610      15.53049097 
Ir       9.65186318       7.18753399      15.53135648 
Ir       9.70333968       2.42156511      15.53049097 
Ir       4.15101437       2.39658927      15.54435376 
Ir       6.89756737       2.42019356      15.52919368 
Ir      11.05051862       4.76499171      15.53135648 
Ir       5.54473279       4.76337179      15.52919368 
Ir       8.30389415       4.79425552      15.54290738 
Ni       8.29759328       1.52394821      13.60842207 
Ni       2.76219002       1.59475115      13.55174608 
Ni       5.53631904       1.59010284      13.55166988 
Ni       9.68241262       3.99832382      13.54431534 
Ni       4.14522897       3.99954151      13.55166988 
Ni       6.92423725       3.99771024      13.54538421 
Ni      11.11864724       6.41935398      13.59831396 
Ni       5.46857451       6.42395246      13.60842207 
Ni       8.30385631       6.38605339      13.54431534 
O      12.40745657       7.16344839      17.71035593 
H       0.73756341       0.42583243      18.07032188 
