46
Lattice="8.423763084275341 0.0 0.0 4.211881542137671 7.295192826444 0.0 0.0 0.0 23.170631675808018" Properties=species:S:1:pos:R:3 pbc="T T T"
Pt       8.42376308       1.62115396       7.00000000 
Pt       2.80792103       1.62115396       7.00000000 
Pt       5.61584206       1.62115396       7.00000000 
Pt       9.82772360       4.05288490       7.00000000 
Pt       4.21188154       4.05288490       7.00000000 
Pt       7.01980257       4.05288490       7.00000000 
Pt      11.23168411       6.48461585       7.00000000 
Pt       5.61584206       6.48461585       7.00000000 
Pt       8.42376308       6.48461585       7.00000000 
Pt       0.00000000       0.00000000       9.29265792 
Pt       2.80792103       0.00000000       9.29265792 
Pt       5.61584206       0.00000000       9.29265792 
Pt       1.40396051       2.43173094       9.29265792 
Pt       4.21188154       2.43173094       9.29265792 
Pt       7.01980257       2.43173094       9.29265792 
Pt       2.80792103       4.86346188       9.29265792 
Pt       5.61584206       4.86346188       9.29265792 
Pt       8.42376308       4.86346188       9.29265792 
Pt       1.40396051       0.81057698      11.58413865 
Pt       4.21730484       0.80282126      11.60066822 
Pt       7.01437928       0.80282126      11.60066822 
Pt       2.80391602       3.25088249      11.60066822 
Pt       5.61584206       3.24230792      11.59810989 
Pt       8.42776809       3.25088249      11.60066822 
Pt       4.20245325       5.67322001      11.60066822 
Pt       7.02923087       5.67322001      11.60066822 
Pt       9.82772360       5.67403887      11.63456712 
Pt      12.60330735       7.27652289      15.97368522 
Pt       7.05213984       7.27652289      15.97368522 
Pt       9.82772360       7.29015201      15.96196167 
Pt       9.82772360       2.46907081      15.97368522 
Pt       4.22721298       2.44058255      15.94505425 
Pt       7.00447114       2.44058255      15.94505425 
Pt      11.22731864       4.86598229      15.96196167 
Pt       5.61584206       4.84575867      15.94505425 
Pt       8.42812856       4.86598229      15.96196167 
Os       8.43245590       1.61613516      13.72924639 
Os       2.79922821       1.61613516      13.72924639 
Os       5.61584206       1.62136929      13.74512508 
Os       9.82772360       3.99399790      13.79198276 
Os       4.21206802       4.05277724      13.74512508 
Os       7.01961609       4.05277724      13.74512508 
Os      11.28268175       6.51405935      13.79198276 
Os       5.61584206       6.49465344      13.72924639 
Os       8.37276544       6.51405935      13.79198276 
Cl       1.40396051       0.81057698      17.97343099 
