46
Lattice="8.154355400643267 0.0 0.0 4.077177700321633 7.061878928443901 0.0 0.0 0.0 22.877337739059687" Properties=species:S:1:pos:R:3 pbc="T T T"
Rh       8.15435540       1.56930643       7.00000000 
Rh       2.71811847       1.56930643       7.00000000 
Rh       5.43623693       1.56930643       7.00000000 
Rh       9.51341463       3.92326607       7.00000000 
Rh       4.07717770       3.92326607       7.00000000 
Rh       6.79529617       3.92326607       7.00000000 
Rh      10.87247387       6.27722571       7.00000000 
Rh       5.43623693       6.27722571       7.00000000 
Rh       8.15435540       6.27722571       7.00000000 
Rh       0.00000000       0.00000000       9.21933443 
Rh       2.71811847       0.00000000       9.21933443 
Rh       5.43623693       0.00000000       9.21933443 
Rh       1.35905923       2.35395964       9.21933443 
Rh       4.07717770       2.35395964       9.21933443 
Rh       6.79529617       2.35395964       9.21933443 
Rh       2.71811847       4.70791929       9.21933443 
Rh       5.43623693       4.70791929       9.21933443 
Rh       8.15435540       4.70791929       9.21933443 
Rh       1.35905923       0.78465321      11.43866887 
Rh       4.07717770       0.78465321      11.43866887 
Rh       6.79529617       0.78465321      11.43866887 
Rh       2.71811847       3.13861286      11.43866887 
Rh       5.43623693       3.13861286      11.43866887 
Rh       8.15435540       3.13861286      11.43866887 
Rh       4.07717770       5.49257250      11.43866887 
Rh       6.79529617       5.49257250      11.43866887 
Rh       9.51341463       5.49257250      11.43866887 
Rh      12.20096279       7.04422915      15.57170289 
Rh       6.82586648       7.04422915      15.57170289 
Rh       5.43623693       0.00062357      15.50418910 
Rh       9.51341463       2.38925919      15.57170289 
Rh       4.09875860       2.36641938      15.52544377 
Rh       6.77371527       2.36641938      15.52544377 
Rh       2.71865849       4.70760750      15.50418910 
Rh       5.43623693       4.68299981      15.52544377 
Rh       8.15381537       4.70760750      15.50418910 
Co       8.16184427       1.56498273      13.54245679 
Co       2.71062960       1.56498273      13.54245679 
Co       5.43623693       1.56880694      13.52321844 
Co       9.51341463       3.90549610      13.52482791 
Co       4.07674513       3.92351582      13.52321844 
Co       6.79572874       3.92351582      13.52321844 
Co      10.88786311       6.28611070      13.52482791 
Co       5.43623693       6.28587311      13.54245679 
Co       8.13896615       6.28611070      13.52482791 
Cl       1.35905923       0.78465321      17.44481886 
