47
Lattice="8.255287822589835 0.0 0.0 4.127643911294918 7.149288969915119 0.0 0.0 0.0 22.987219042291855" Properties=species:S:1:pos:R:3 pbc="T T T"
Pt       8.25528782       1.58873088       7.00000000 
Pt       2.75176261       1.58873088       7.00000000 
Pt       5.50352522       1.58873088       7.00000000 
Pt       9.63116913       3.97182721       7.00000000 
Pt       4.12764391       3.97182721       7.00000000 
Pt       6.87940652       3.97182721       7.00000000 
Pt      11.00705043       6.35492353       7.00000000 
Pt       5.50352522       6.35492353       7.00000000 
Pt       8.25528782       6.35492353       7.00000000 
Pt       0.00000000       0.00000000       9.24680476 
Pt       2.75176261       0.00000000       9.24680476 
Pt       5.50352522       0.00000000       9.24680476 
Pt       1.37588130       2.38309632       9.24680476 
Pt       4.12764391       2.38309632       9.24680476 
Pt       6.87940652       2.38309632       9.24680476 
Pt       2.75176261       4.76619265       9.24680476 
Pt       5.50352522       4.76619265       9.24680476 
Pt       8.25528782       4.76619265       9.24680476 
Pt       1.37527661       0.79401632      11.60063482 
Pt       4.12680776       0.79225332      11.59523692 
Pt       6.87965460       0.79511580      11.59624167 
Pt       2.74951538       3.17779370      11.59523692 
Pt       5.50445723       3.17799986      11.59543119 
Pt       8.25392109       3.17550332      11.60214905 
Pt       4.12841778       5.56039775      11.59624167 
Pt       6.87702709       5.56035368      11.60214905 
Pt       9.62899807       5.55930463      11.59558504 
Pt       0.00525764       0.00303550      16.08103278 
Pt       2.76434251       0.00006842      16.01120232 
Pt       9.61641016       7.14664181      16.00483317 
Pt       1.38223051       2.39395663      16.01120232 
Pt       4.12834708       2.38350230      16.02157194 
Pt       6.87498593       2.39530856      16.01426421 
Pt      10.99737844       4.75473459      16.00483317 
Pt       5.51189103       4.75625819      16.01426421 
Pt       8.25532587       4.76621461      16.02870321 
Os       8.25197075       1.55821226      13.80489092 
Os       2.75010062       1.58777133      13.77222583 
Os       5.50571140       1.58708843      13.77056121 
Os       9.62997272       3.96965004      13.77668444 
Os       4.12731460       3.97454173      13.77056121 
Os       6.87546904       3.96955390      13.78126400 
Os      11.01610497       6.36015117      13.78127863 
Os       5.47543678       6.36731017      13.80489092 
Os       8.25280414       6.35497599      13.77668444 
O      12.20216304       7.04492211      18.08954849 
H       0.59298524       0.34236019      18.48788831 
