47
Lattice="8.141275339404878 0.0 0.0 4.070637669702439 7.0505512631284 0.0 0.0 0.0 22.863097972020395" Properties=species:S:1:pos:R:3 pbc="T T T"
Ir       8.14127534       1.56678917       7.00000000 
Ir       2.71375845       1.56678917       7.00000000 
Ir       5.42751689       1.56678917       7.00000000 
Ir       9.49815456       3.91697292       7.00000000 
Ir       4.07063767       3.91697292       7.00000000 
Ir       6.78439612       3.91697292       7.00000000 
Ir      10.85503379       6.26715668       7.00000000 
Ir       5.42751689       6.26715668       7.00000000 
Ir       8.14127534       6.26715668       7.00000000 
Ir       0.00000000       0.00000000       9.21577449 
Ir       2.71375845       0.00000000       9.21577449 
Ir       5.42751689       0.00000000       9.21577449 
Ir       1.35687922       2.35018375       9.21577449 
Ir       4.07063767       2.35018375       9.21577449 
Ir       6.78439612       2.35018375       9.21577449 
Ir       2.71375845       4.70036751       9.21577449 
Ir       5.42751689       4.70036751       9.21577449 
Ir       8.14127534       4.70036751       9.21577449 
Ir       1.35687922       0.78339458      11.43154899 
Ir       4.07063767       0.78339458      11.43154899 
Ir       6.78439612       0.78339458      11.43154899 
Ir       2.71375845       3.13357834      11.43154899 
Ir       5.42751689       3.13357834      11.43154899 
Ir       8.14127534       3.13357834      11.43154899 
Ir       4.07063767       5.48376209      11.43154899 
Ir       6.78439612       5.48376209      11.43154899 
Ir       9.49815456       5.48376209      11.43154899 
Ir      12.18512098       7.03508288      16.84473724 
Ir       6.78676189       7.04143138      16.31418584 
Ir       9.44606430       7.03973548      16.31274967 
Ir       9.49143940       2.35679251      16.31418584 
Ir       4.05063147       2.33863317      16.29672878 
Ir       6.75662299       2.34194698      16.29396053 
Ir      10.81962190       4.66066391      16.31274967 
Ir       5.40649708       4.68043366      16.29396053 
Ir       8.11872764       4.68734959      16.27704247 
Au       8.13187879       1.54946885      13.94023282 
Au       2.69881227       1.55815999      13.87777262 
Au       5.42018146       1.55789458      13.87205109 
Au       9.48713327       3.91152327      13.84649167 
Au       4.05926701       3.91506755      13.87205109 
Au       6.77443826       3.91122375      13.84820973 
Au      10.85561905       6.26749458      13.96948317 
Au       5.40781878       6.26767919      13.94023282 
Au       8.13104516       6.26033678      13.84649167 
O      12.17257460       7.02783922      18.74252417 
H       0.76435736       0.44130193      19.06320218 
