46
Lattice="8.423763084275341 0.0 0.0 4.211881542137671 7.295192826444 0.0 0.0 0.0 23.170631675808018" Properties=species:S:1:pos:R:3 pbc="T T T"
Pt       8.42376308       1.62115396       7.00000000 
Pt       2.80792103       1.62115396       7.00000000 
Pt       5.61584206       1.62115396       7.00000000 
Pt       9.82772360       4.05288490       7.00000000 
Pt       4.21188154       4.05288490       7.00000000 
Pt       7.01980257       4.05288490       7.00000000 
Pt      11.23168411       6.48461585       7.00000000 
Pt       5.61584206       6.48461585       7.00000000 
Pt       8.42376308       6.48461585       7.00000000 
Pt       0.00000000       0.00000000       9.29265792 
Pt       2.80792103       0.00000000       9.29265792 
Pt       5.61584206       0.00000000       9.29265792 
Pt       1.40396051       2.43173094       9.29265792 
Pt       4.21188154       2.43173094       9.29265792 
Pt       7.01980257       2.43173094       9.29265792 
Pt       2.80792103       4.86346188       9.29265792 
Pt       5.61584206       4.86346188       9.29265792 
Pt       8.42376308       4.86346188       9.29265792 
Pt       1.40396051       0.81057698      11.66602121 
Pt       4.20765824       0.81351701      11.65300468 
Pt       7.02402588       0.81351701      11.65300468 
Pt       2.80835552       3.23718042      11.65300468 
Pt       5.61584206       3.24230792      11.63226404 
Pt       8.42332860       3.23718042      11.65300468 
Pt       4.21653934       5.67622634      11.65300468 
Pt       7.01514478       5.67622634      11.65300468 
Pt       9.82772360       5.67403887      11.65868116 
Pt      12.53642913       7.23791073      15.92045229 
Pt       7.11901807       7.23791073      15.92045229 
Pt       9.82772360       7.28946796      15.75955065 
Pt       9.82772360       2.54629513      15.92045229 
Pt       4.22277607       2.43802090      15.81096790 
Pt       7.00890804       2.43802090      15.81096790 
Pt      11.22672623       4.86632432      15.75955065 
Pt       5.61584206       4.85088196      15.81096790 
Pt       8.42872096       4.86632432      15.75955065 
Fe       8.44704681       1.60771110      13.77093084 
Fe       2.78463731       1.60771110      13.77093084 
Fe       5.61584206       1.64808970      13.72523208 
Fe       9.82772360       4.01085912      13.72012617 
Fe       4.23520857       4.03941704      13.72523208 
Fe       6.99647554       4.03941704      13.72523208 
Fe      11.26807951       6.50562874      13.72012617 
Fe       5.61584206       6.51150157      13.77093084 
Fe       8.38736769       6.50562874      13.72012617 
O       1.40396051       0.81057698      17.06458815 
