47
Lattice="8.223510443843312 0.0 0.0 4.111755221921656 7.121768952654951 0.0 0.0 0.0 22.952624214162014" Properties=species:S:1:pos:R:3 pbc="T T T"
Ir       8.22351044       1.58261532       7.00000000 
Ir       2.74117015       1.58261532       7.00000000 
Ir       5.48234030       1.58261532       7.00000000 
Ir       9.59409552       3.95653831       7.00000000 
Ir       4.11175522       3.95653831       7.00000000 
Ir       6.85292537       3.95653831       7.00000000 
Ir      10.96468059       6.33046129       7.00000000 
Ir       5.48234030       6.33046129       7.00000000 
Ir       8.22351044       6.33046129       7.00000000 
Ir       0.00000000       0.00000000       9.23815605 
Ir       2.74117015       0.00000000       9.23815605 
Ir       5.48234030       0.00000000       9.23815605 
Ir       1.37058507       2.37392298       9.23815605 
Ir       4.11175522       2.37392298       9.23815605 
Ir       6.85292537       2.37392298       9.23815605 
Ir       2.74117015       4.74784597       9.23815605 
Ir       5.48234030       4.74784597       9.23815605 
Ir       8.22351044       4.74784597       9.23815605 
Ir       1.37058507       0.79130766      11.47631211 
Ir       4.11175522       0.79130766      11.47631211 
Ir       6.85292537       0.79130766      11.47631211 
Ir       2.74117015       3.16523065      11.47631211 
Ir       5.48234030       3.16523065      11.47631211 
Ir       8.22351044       3.16523065      11.47631211 
Ir       4.11175522       5.53915363      11.47631211 
Ir       6.85292537       5.53915363      11.47631211 
Ir       9.59409552       5.53915363      11.47631211 
Ir       8.21746638       1.55419299      13.73562229 
Ir       2.73496732       1.57903412      13.69784704 
Ir       5.48098900       1.57773432      13.70006506 
Ir       9.58748418       3.95368814      13.69371235 
Ir       4.10685250       3.95780856      13.70006506 
Ir       6.84981294       3.95474134      13.69233184 
Ir      10.97031573       6.33371474      13.72224851 
Ir       5.45470380       6.33943815      13.73562229 
Ir       8.21773646       6.32616079      13.69371235 
Ir       0.00765637       0.00442041      15.98877962 
Ir       2.76262550       0.00206790      15.88501336 
Ir       9.56135068       7.11938229      15.88250337 
Ir       1.38310360       2.39146991      15.88501336 
Ir       4.10713649       2.37125636      15.89620391 
Ir       6.83010054       2.39346605      15.88556151 
Ir      10.94624126       4.72068144      15.88250337 
Ir       5.48785267       4.71830755      15.88556151 
Ir       8.21816899       4.74476208      15.89101817 
O      12.23197675       7.06213507      17.96362015 
H       0.68243143       0.39400197      18.33214356 
