46
Lattice="8.508000715118095 0.0 0.0 4.254000357559048 7.36814475470844 0.0 0.0 0.0 23.262337992566096" Properties=species:S:1:pos:R:3 pbc="T T T"
Pt       8.50800072       1.63736550       7.00000000 
Pt       2.83600024       1.63736550       7.00000000 
Pt       5.67200048       1.63736550       7.00000000 
Pt       9.92600083       4.09341375       7.00000000 
Pt       4.25400036       4.09341375       7.00000000 
Pt       7.09000060       4.09341375       7.00000000 
Pt      11.34400095       6.54946200       7.00000000 
Pt       5.67200048       6.54946200       7.00000000 
Pt       8.50800072       6.54946200       7.00000000 
Pt       0.00000000       0.00000000       9.31558450 
Pt       2.83600024       0.00000000       9.31558450 
Pt       5.67200048       0.00000000       9.31558450 
Pt       1.41800012       2.45604825       9.31558450 
Pt       4.25400036       2.45604825       9.31558450 
Pt       7.09000060       2.45604825       9.31558450 
Pt       2.83600024       4.91209650       9.31558450 
Pt       5.67200048       4.91209650       9.31558450 
Pt       8.50800072       4.91209650       9.31558450 
Pt       1.41800012       0.81868275      11.55728303 
Pt       4.25742464       0.81151410      11.56655142 
Pt       7.08657632       0.81151410      11.56655142 
Pt       2.83150414       3.28128084      11.56655142 
Pt       5.67200048       3.27473100      11.56660781 
Pt       8.51249681       3.28128084      11.56655142 
Pt       4.24607998       5.73139807      11.56655142 
Pt       7.09792097       5.73139807      11.56655142 
Pt       9.92600083       5.73077925      11.62694825 
Pt      12.70005055       7.33237760      15.97826955 
Pt       7.15195112       7.33237760      15.97826955 
Pt       9.92600083       7.36421462      15.95020904 
Pt       9.92600083       2.52758255      15.97826955 
Pt       4.27490748       2.46811898      15.93016990 
Pt       7.06909348       2.46811898      15.93016990 
Pt      11.34059735       4.91406157      15.95020904 
Pt       5.67200048       4.88795504      15.93016990 
Pt       8.51140431       4.91406157      15.95020904 
Ir       8.51478105       1.63345087      13.72834524 
Ir       2.82921991       1.63345087      13.72834524 
Ir       5.67200048       1.63226698      13.72320657 
Ir       9.92600083       4.02530646      13.77253664 
Ir       4.24958491       4.09596301      13.72320657 
Ir       7.09441604       4.09596301      13.72320657 
Ir      11.40298360       6.58351565      13.77253664 
Ir       5.67200048       6.55729126      13.72834524 
Ir       8.44901807       6.58351565      13.77253664 
Cl       1.41800012       0.81868275      17.86442138 
