47
Lattice="8.072811846636833 0.0 0.0 4.036405923318417 6.991260139159463 0.0 0.0 0.0 22.78856436166909" Properties=species:S:1:pos:R:3 pbc="T T T"
Rh       8.07281185       1.55361336       7.00000000 
Rh       2.69093728       1.55361336       7.00000000 
Rh       5.38187456       1.55361336       7.00000000 
Rh       9.41828049       3.88403341       7.00000000 
Rh       4.03640592       3.88403341       7.00000000 
Rh       6.72734321       3.88403341       7.00000000 
Rh      10.76374913       6.21445346       7.00000000 
Rh       5.38187456       6.21445346       7.00000000 
Rh       8.07281185       6.21445346       7.00000000 
Rh       0.00000000       0.00000000       9.19714109 
Rh       2.69093728       0.00000000       9.19714109 
Rh       5.38187456       0.00000000       9.19714109 
Rh       1.34546864       2.33042005       9.19714109 
Rh       4.03640592       2.33042005       9.19714109 
Rh       6.72734321       2.33042005       9.19714109 
Rh       2.69093728       4.66084009       9.19714109 
Rh       5.38187456       4.66084009       9.19714109 
Rh       8.07281185       4.66084009       9.19714109 
Rh       1.34546864       0.77680668      11.39428218 
Rh       4.03640592       0.77680668      11.39428218 
Rh       6.72734321       0.77680668      11.39428218 
Rh       2.69093728       3.10722673      11.39428218 
Rh       5.38187456       3.10722673      11.39428218 
Rh       8.07281185       3.10722673      11.39428218 
Rh       4.03640592       5.43764677      11.39428218 
Rh       6.72734321       5.43764677      11.39428218 
Rh       9.41828049       5.43764677      11.39428218 
Rh      12.09522966       6.98333215      15.60102163 
Rh       6.73075067       6.98393166      15.60145285 
Rh       5.37567515       0.00179460      15.50321707 
Rh       9.41323408       2.37422845      15.45981681 
Rh       4.03570942       2.33559490      15.51421835 
Rh       6.71825187       2.33559540      15.51409702 
Rh      10.75316619       4.65386264      15.49661291 
Rh       5.37688193       4.61968212      15.49336992 
Rh       8.07322277       4.65288973      15.49499997 
Co       8.04581153       1.50393027      13.50847165 
Co       2.71243523       1.50359799      13.50870918 
Co       5.37912887       1.55033081      13.49711021 
Co       9.41621579       3.91009890      13.47927323 
Co       4.03150454       3.87893121      13.49174195 
Co       6.72458584       3.87901883      13.49096074 
Co      10.77339303       6.23648028      13.51006282 
Co       5.37582158       6.22311507      13.51038037 
Co       8.05202788       6.23596030      13.50927286 
O       1.34015716       0.01527548      17.23531670 
H       1.34170011       0.88001409      17.69753209 
