46
Lattice="7.991268292630401 0.0 0.0 3.9956341463152003 6.920641349875024 0.0 0.0 0.0 22.699790984278494" Properties=species:S:1:pos:R:3 pbc="T T T"
Rh       7.99126829       1.53792030       7.00000000 
Rh       2.66375610       1.53792030       7.00000000 
Rh       5.32751220       1.53792030       7.00000000 
Rh       9.32314634       3.84480075       7.00000000 
Rh       3.99563415       3.84480075       7.00000000 
Rh       6.65939024       3.84480075       7.00000000 
Rh      10.65502439       6.15168120       7.00000000 
Rh       5.32751220       6.15168120       7.00000000 
Rh       7.99126829       6.15168120       7.00000000 
Rh       0.00000000       0.00000000       9.17494775 
Rh       2.66375610       0.00000000       9.17494775 
Rh       5.32751220       0.00000000       9.17494775 
Rh       1.33187805       2.30688045       9.17494775 
Rh       3.99563415       2.30688045       9.17494775 
Rh       6.65939024       2.30688045       9.17494775 
Rh       2.66375610       4.61376090       9.17494775 
Rh       5.32751220       4.61376090       9.17494775 
Rh       7.99126829       4.61376090       9.17494775 
Rh       1.33187805       0.76896015      11.34989549 
Rh       3.99563415       0.76896015      11.34989549 
Rh       6.65939024       0.76896015      11.34989549 
Rh       2.66375610       3.07584060      11.34989549 
Rh       5.32751220       3.07584060      11.34989549 
Rh       7.99126829       3.07584060      11.34989549 
Rh       3.99563415       5.38272105      11.34989549 
Rh       6.65939024       5.38272105      11.34989549 
Rh       9.32314634       5.38272105      11.34989549 
Rh       7.99762155       1.53425225      13.59422049 
Rh       2.65740284       1.53425225      13.59422049 
Rh       5.32751220       1.53393601      13.58673428 
Rh       9.32314634       3.84315037      13.59016743 
Rh       3.99218365       3.84679289      13.58673428 
Rh       6.66284074       3.84679289      13.58673428 
Rh      10.65645366       6.15250639      13.59016743 
Rh       5.32751220       6.15901731      13.59422049 
Rh       7.98983903       6.15250639      13.59016743 
Rh      11.95485961       6.90214141      15.88551280 
Rh       6.69143307       6.90214141      15.88551280 
Rh       9.32314634       6.92002251      15.76969603 
Rh       9.32314634       2.34388032      15.88551280 
Rh       4.02047071       2.32121985      15.77849359 
Rh       6.63455368       2.32121985      15.77849359 
Rh      10.65448846       4.61407032      15.76969603 
Rh       5.32751220       4.58508211      15.77849359 
Rh       7.99180422       4.61407032      15.76969603 
S       1.33187805       0.76896015      17.50086116 
