46
Lattice="8.67356128265155 0.0 0.0 4.336780641325775 7.511524412057382 0.0 0.0 0.0 23.442577509002792" Properties=species:S:1:pos:R:3 pbc="T T T"
Au       8.67356128       1.66922765       7.00000000 
Au       2.89118709       1.66922765       7.00000000 
Au       5.78237419       1.66922765       7.00000000 
Au      10.11915483       4.17306912       7.00000000 
Au       4.33678064       4.17306912       7.00000000 
Au       7.22796774       4.17306912       7.00000000 
Au      11.56474838       6.67691059       7.00000000 
Au       5.78237419       6.67691059       7.00000000 
Au       8.67356128       6.67691059       7.00000000 
Au       0.00000000       0.00000000       9.36064438 
Au       2.89118709       0.00000000       9.36064438 
Au       5.78237419       0.00000000       9.36064438 
Au       1.44559355       2.50384147       9.36064438 
Au       4.33678064       2.50384147       9.36064438 
Au       7.22796774       2.50384147       9.36064438 
Au       2.89118709       5.00768294       9.36064438 
Au       5.78237419       5.00768294       9.36064438 
Au       8.67356128       5.00768294       9.36064438 
Au       1.44559355       0.83461382      11.72128875 
Au       4.33678064       0.83461382      11.72128875 
Au       7.22796774       0.83461382      11.72128875 
Au       2.89118709       3.33845529      11.72128875 
Au       5.78237419       3.33845529      11.72128875 
Au       8.67356128       3.33845529      11.72128875 
Au       4.33678064       5.84229676      11.72128875 
Au       7.22796774       5.84229676      11.72128875 
Au      10.11915483       5.84229676      11.72128875 
Au      12.92069193       7.45976496      16.38555443 
Au       7.31761773       7.45976496      16.38555443 
Au       5.78237419       0.00047536      16.33282805 
Au      10.11915483       2.60736037      16.38555443 
Au       4.35665267       2.51531459      16.30441076 
Au       7.20809571       2.51531459      16.30441076 
Au       2.89159877       5.00744526      16.33282805 
Au       5.78237419       4.98473670      16.30441076 
Au       8.67314960       5.00744526      16.33282805 
Pd       8.68448211       1.66292251      14.02266264 
Pd       2.88026627       1.66292251      14.02266264 
Pd       5.78237419       1.66218425      14.00621951 
Pd      10.11915483       4.15722478      14.03641527 
Pd       4.33068088       4.17659082      14.00621951 
Pd       7.23406750       4.17659082      14.00621951 
Pd      11.57846998       6.68483276      14.03641527 
Pd       5.78237419       6.68952087      14.02266264 
Pd       8.65983968       6.68483276      14.03641527 
S       1.44559355       0.83461382      17.99818284 
