47
Lattice="8.317442508656132 0.0 0.0 4.158721254328066 7.20311650701278 0.0 0.0 0.0 23.05488449384088" Properties=species:S:1:pos:R:3 pbc="T T T"
Rh       8.31744251       1.60069256       7.00000000 
Rh       2.77248084       1.60069256       7.00000000 
Rh       5.54496167       1.60069256       7.00000000 
Rh       9.70368293       4.00173139       7.00000000 
Rh       4.15872125       4.00173139       7.00000000 
Rh       6.93120209       4.00173139       7.00000000 
Rh      11.08992334       6.40277023       7.00000000 
Rh       5.54496167       6.40277023       7.00000000 
Rh       8.31744251       6.40277023       7.00000000 
Rh       0.00000000       0.00000000       9.26372112 
Rh       2.77248084       0.00000000       9.26372112 
Rh       5.54496167       0.00000000       9.26372112 
Rh       1.38624042       2.40103884       9.26372112 
Rh       4.15872125       2.40103884       9.26372112 
Rh       6.93120209       2.40103884       9.26372112 
Rh       2.77248084       4.80207767       9.26372112 
Rh       5.54496167       4.80207767       9.26372112 
Rh       8.31744251       4.80207767       9.26372112 
Rh       1.38624042       0.80034628      11.52744225 
Rh       4.15872125       0.80034628      11.52744225 
Rh       6.93120209       0.80034628      11.52744225 
Rh       2.77248084       3.20138511      11.52744225 
Rh       5.54496167       3.20138511      11.52744225 
Rh       8.31744251       3.20138511      11.52744225 
Rh       4.15872125       5.60242395      11.52744225 
Rh       6.93120209       5.60242395      11.52744225 
Rh       9.70368293       5.60242395      11.52744225 
Rh      12.46529914       7.18712175      15.64324100 
Rh       6.93545711       7.18771610      15.64644568 
Rh       9.70028672       7.19900700      15.54865345 
Rh       9.70108194       2.44801043      15.47914774 
Rh       4.15910408       2.40273620      15.54714646 
Rh       6.92589938       2.40414012      15.54812162 
Rh       2.76219251       4.78413037      15.53910577 
Rh       5.54203954       4.74258819      15.54144065 
Rh       8.32299198       4.78333314      15.54009696 
Co       8.26954409       1.49967590      13.59348864 
Co       2.81678716       1.49762568      13.59359833 
Co       5.54471848       1.59061244      13.58085523 
Co       9.70350962       4.07554883      13.55480089 
Co       4.16004638       4.00587568      13.57242990 
Co       6.92593618       4.00776969      13.57319629 
Co      11.10740961       6.42990887      13.59487542 
Co       5.54525418       6.40889304      13.59625728 
Co       8.29314674       6.42817211      13.59621319 
O       5.53695445       7.18886263      17.24411808 
H       1.37461951       0.83950388      17.72438383 
