46
Lattice="8.65006978116697 0.0 0.0 4.325034890583485 7.491180174998695 0.0 0.0 0.0 23.417003201478764" Properties=species:S:1:pos:R:3 pbc="T T T"
Ag       8.65006978       1.66470671       7.00000000 
Ag       2.88335659       1.66470671       7.00000000 
Ag       5.76671319       1.66470671       7.00000000 
Ag      10.09174808       4.16176676       7.00000000 
Ag       4.32503489       4.16176676       7.00000000 
Ag       7.20839148       4.16176676       7.00000000 
Ag      11.53342637       6.65882682       7.00000000 
Ag       5.76671319       6.65882682       7.00000000 
Ag       8.65006978       6.65882682       7.00000000 
Ag       0.00000000       0.00000000       9.35425080 
Ag       2.88335659       0.00000000       9.35425080 
Ag       5.76671319       0.00000000       9.35425080 
Ag       1.44167830       2.49706006       9.35425080 
Ag       4.32503489       2.49706006       9.35425080 
Ag       7.20839148       2.49706006       9.35425080 
Ag       2.88335659       4.99412012       9.35425080 
Ag       5.76671319       4.99412012       9.35425080 
Ag       8.65006978       4.99412012       9.35425080 
Ag       1.44167830       0.83235335      11.70850160 
Ag       4.32503489       0.83235335      11.70850160 
Ag       7.20839148       0.83235335      11.70850160 
Ag       2.88335659       3.32941341      11.70850160 
Ag       5.76671319       3.32941341      11.70850160 
Ag       8.65006978       3.32941341      11.70850160 
Ag       4.32503489       5.82647347      11.70850160 
Ag       7.20839148       5.82647347      11.70850160 
Ag      10.09174808       5.82647347      11.70850160 
Ag      12.91604648       7.45708291      16.11654244 
Ag       7.26744968       7.45708291      16.11654244 
Ag      10.09174808       7.48079185      15.93455047 
Ag      10.09174808       2.56525459      16.11654244 
Ag       4.33353288       2.50196638      15.95126806 
Ag       7.19989349       2.50196638      15.95126806 
Ag      11.52442982       4.99931428      15.93455047 
Ag       5.76671319       4.98430748      15.95126806 
Ag       8.65906633       4.99931428      15.93455047 
Cu       8.69869556       1.63663260      13.87917288 
Cu       2.83473082       1.63663260      13.87917288 
Cu       5.76671319       1.65644827      13.84120411 
Cu      10.09174808       4.00698577      13.87758362 
Cu       4.31788287       4.16589598      13.84120411 
Cu       7.21554350       4.16589598      13.84120411 
Cu      11.66747065       6.73621732      13.87758362 
Cu       5.76671319       6.71497503      13.87917288 
Cu       8.51602551       6.73621732      13.87758362 
O       1.44167830       0.83235335      17.37847224 
