46
Lattice="8.072811846636833 0.0 0.0 4.036405923318417 6.991260139159463 0.0 0.0 0.0 22.78856436166909" Properties=species:S:1:pos:R:3 pbc="T T T"
Rh       8.07281185       1.55361336       7.00000000 
Rh       2.69093728       1.55361336       7.00000000 
Rh       5.38187456       1.55361336       7.00000000 
Rh       9.41828049       3.88403341       7.00000000 
Rh       4.03640592       3.88403341       7.00000000 
Rh       6.72734321       3.88403341       7.00000000 
Rh      10.76374913       6.21445346       7.00000000 
Rh       5.38187456       6.21445346       7.00000000 
Rh       8.07281185       6.21445346       7.00000000 
Rh       0.00000000       0.00000000       9.19714109 
Rh       2.69093728       0.00000000       9.19714109 
Rh       5.38187456       0.00000000       9.19714109 
Rh       1.34546864       2.33042005       9.19714109 
Rh       4.03640592       2.33042005       9.19714109 
Rh       6.72734321       2.33042005       9.19714109 
Rh       2.69093728       4.66084009       9.19714109 
Rh       5.38187456       4.66084009       9.19714109 
Rh       8.07281185       4.66084009       9.19714109 
Rh       1.34546864       0.77680668      11.39428218 
Rh       4.03640592       0.77680668      11.39428218 
Rh       6.72734321       0.77680668      11.39428218 
Rh       2.69093728       3.10722673      11.39428218 
Rh       5.38187456       3.10722673      11.39428218 
Rh       8.07281185       3.10722673      11.39428218 
Rh       4.03640592       5.43764677      11.39428218 
Rh       6.72734321       5.43764677      11.39428218 
Rh       9.41828049       5.43764677      11.39428218 
Rh      12.09989270       6.98587631      15.78989603 
Rh       6.73666827       6.98587631      15.78989603 
Rh       9.41828049       6.99039681      15.71888223 
Rh       9.41828049       2.34118771      15.78989603 
Rh       4.06118423       2.34472581      15.73298364 
Rh       6.70256490       2.34472581      15.73298364 
Rh      10.76300147       4.66127176      15.71888223 
Rh       5.38187456       4.63222857      15.73298364 
Rh       8.07355951       4.66127176      15.71888223 
Ru       8.07658651       1.55143406      13.58222639 
Ru       2.68716262       1.55143406      13.58222639 
Ru       5.38187456       1.54930224      13.59301490 
Ru       9.41828049       3.88531285      13.58006057 
Ru       4.03267238       3.88618897      13.59301490 
Ru       6.73107675       3.88618897      13.59301490 
Ru      10.76264111       6.21381374      13.58006057 
Ru       5.38187456       6.21881206      13.58222639 
Ru       8.07391987       6.21381374      13.58006057 
S       1.34546864       0.77680668      17.46689169 
