46
Lattice="8.738335799342142 0.0 0.0 4.369167899671071 7.567620789029295 0.0 0.0 0.0 23.51309507088161" Properties=species:S:1:pos:R:3 pbc="T T T"
Ag       8.73833580       1.68169351       7.00000000 
Ag       2.91277860       1.68169351       7.00000000 
Ag       5.82555720       1.68169351       7.00000000 
Ag      10.19472510       4.20423377       7.00000000 
Ag       4.36916790       4.20423377       7.00000000 
Ag       7.28194650       4.20423377       7.00000000 
Ag      11.65111440       6.72677403       7.00000000 
Ag       5.82555720       6.72677403       7.00000000 
Ag       8.73833580       6.72677403       7.00000000 
Ag       0.00000000       0.00000000       9.37827377 
Ag       2.91277860       0.00000000       9.37827377 
Ag       5.82555720       0.00000000       9.37827377 
Ag       1.45638930       2.52254026       9.37827377 
Ag       4.36916790       2.52254026       9.37827377 
Ag       7.28194650       2.52254026       9.37827377 
Ag       2.91277860       5.04508053       9.37827377 
Ag       5.82555720       5.04508053       9.37827377 
Ag       8.73833580       5.04508053       9.37827377 
Ag       1.45638930       0.84084675      11.75654754 
Ag       4.36916790       0.84084675      11.75654754 
Ag       7.28194650       0.84084675      11.75654754 
Ag       2.91277860       3.36338702      11.75654754 
Ag       5.82555720       3.36338702      11.75654754 
Ag       8.73833580       3.36338702      11.75654754 
Ag       4.36916790       5.88592728      11.75654754 
Ag       7.28194650       5.88592728      11.75654754 
Ag      10.19472510       5.88592728      11.75654754 
Ag      13.06162272       7.54113139      16.33251873 
Ag       7.32782748       7.54113139      16.33251873 
Ag      10.19472510       7.56249006      16.30259035 
Ag      10.19472510       2.57551906      16.33251873 
Ag       4.37040230       2.52325295      16.27777906 
Ag       7.28071210       2.52325295      16.27777906 
Ag      11.64667106       5.04764589      16.30259035 
Ag       5.82555720       5.04365516      16.27777906 
Ag       8.74277914       5.04764589      16.30259035 
Rh       8.76427872       1.66671536      14.00841736 
Rh       2.88683568       1.66671536      14.00841736 
Rh       5.82555720       1.67212703      14.03033246 
Rh      10.19472510       4.17712537      14.05336475 
Rh       4.36088308       4.20901701      14.03033246 
Rh       7.29023132       4.20901701      14.03033246 
Rh      11.67459097       6.74032824      14.05336475 
Rh       5.82555720       6.75673033      14.00841736 
Rh       8.71485923       6.74032824      14.05336475 
S       1.45638930       0.84084675      18.05116064 
