46
Lattice="8.267761186209963 0.0 0.0 4.133880593104982 7.160091219680793 0.0 0.0 0.0 23.000798320623197" Properties=species:S:1:pos:R:3 pbc="T T T"
Pt       8.26776119       1.59113138       7.00000000 
Pt       2.75592040       1.59113138       7.00000000 
Pt       5.51184079       1.59113138       7.00000000 
Pt       9.64572138       3.97782846       7.00000000 
Pt       4.13388059       3.97782846       7.00000000 
Pt       6.88980099       3.97782846       7.00000000 
Pt      11.02368158       6.36452553       7.00000000 
Pt       5.51184079       6.36452553       7.00000000 
Pt       8.26776119       6.36452553       7.00000000 
Pt       0.00000000       0.00000000       9.25019958 
Pt       2.75592040       0.00000000       9.25019958 
Pt       5.51184079       0.00000000       9.25019958 
Pt       1.37796020       2.38669707       9.25019958 
Pt       4.13388059       2.38669707       9.25019958 
Pt       6.88980099       2.38669707       9.25019958 
Pt       2.75592040       4.77339415       9.25019958 
Pt       5.51184079       4.77339415       9.25019958 
Pt       8.26776119       4.77339415       9.25019958 
Pt       1.37957867       0.79650012      11.62273175 
Pt       4.13388059       0.79283531      11.62562151 
Pt       6.88818251       0.79650012      11.62273175 
Pt       2.75355582       3.18362796      11.62562151 
Pt       5.51420537       3.18362796      11.62562151 
Pt       8.26776119       3.18538953      11.62527835 
Pt       4.13388059       5.56709099      11.62273175 
Pt       6.89250885       5.56739645      11.62527835 
Pt       9.64301353       5.56739645      11.62527835 
Pt       0.00000000       0.00000000      16.06896738 
Pt       6.90193103       7.15767351      16.04772740 
Pt       9.63359134       7.15767351      16.04772740 
Pt       9.64969261       2.39841085      16.04772740 
Pt       4.13388059       2.38669707      16.06383068 
Pt       6.88582976       2.39841085      16.04772740 
Pt      11.01552276       4.76409808      16.04772740 
Pt       5.51999961       4.76409808      16.04772740 
Pt       8.26776119       4.77339415      16.06230613 
Re       8.26776119       1.56172592      13.82189019 
Re       2.75463125       1.59038710      13.80348273 
Re       5.51312993       1.59038710      13.80348273 
Re       9.64951629       3.97563747      13.81882643 
Re       4.13388059       3.97931703      13.80348273 
Re       6.88600608       3.97563747      13.81882643 
Re      11.04914746       6.37922826      13.82189019 
Re       5.48637492       6.37922826      13.82189019 
Re       8.26776119       6.36890751      13.81882643 
F       0.00000000       0.00000000      18.09083175 
