46
Lattice="8.255287822589835 0.0 0.0 4.127643911294918 7.149288969915119 0.0 0.0 0.0 22.987219042291855" Properties=species:S:1:pos:R:3 pbc="T T T"
Pt       8.25528782       1.58873088       7.00000000 
Pt       2.75176261       1.58873088       7.00000000 
Pt       5.50352522       1.58873088       7.00000000 
Pt       9.63116913       3.97182721       7.00000000 
Pt       4.12764391       3.97182721       7.00000000 
Pt       6.87940652       3.97182721       7.00000000 
Pt      11.00705043       6.35492353       7.00000000 
Pt       5.50352522       6.35492353       7.00000000 
Pt       8.25528782       6.35492353       7.00000000 
Pt       0.00000000       0.00000000       9.24680476 
Pt       2.75176261       0.00000000       9.24680476 
Pt       5.50352522       0.00000000       9.24680476 
Pt       1.37588130       2.38309632       9.24680476 
Pt       4.12764391       2.38309632       9.24680476 
Pt       6.87940652       2.38309632       9.24680476 
Pt       2.75176261       4.76619265       9.24680476 
Pt       5.50352522       4.76619265       9.24680476 
Pt       8.25528782       4.76619265       9.24680476 
Pt       1.37588130       0.79436544      11.66189399 
Pt       4.12474308       0.79560300      11.65213605 
Pt       6.88230735       0.79560300      11.65213605 
Pt       2.75138395       3.17433079      11.65213605 
Pt       5.50352522       3.17746176      11.64493852 
Pt       8.25566648       3.17433079      11.65213605 
Pt       4.13016609       5.56245150      11.65213605 
Pt       6.87688434       5.56245150      11.65213605 
Pt       9.63116913       5.56055809      11.64374766 
Pt      12.34027771       7.12466266      15.95045469 
Pt       6.92206054       7.12466266      15.95045469 
Pt       9.63116913       7.14760275      15.84689333 
Pt       9.63116913       2.43234895      15.95045469 
Pt       4.14809119       2.39490157      15.87477776 
Pt       6.85895924       2.39490157      15.87477776 
Pt      11.00559012       4.76703576      15.84689333 
Pt       5.50352522       4.74258216      15.87477776 
Pt       8.25674813       4.76703576      15.84689333 
Fe       8.26097374       1.58544811      13.78620011 
Fe       2.74607669       1.58544811      13.78620011 
Fe       5.50352522       1.59027931      13.76122587 
Fe       9.63116913       3.97229769      13.75336746 
Fe       4.12898489       3.97105299      13.76122587 
Fe       6.87806554       3.97105299      13.76122587 
Fe      11.00664298       6.35468829      13.75336746 
Fe       5.50352522       6.36148907      13.78620011 
Fe       8.25569528       6.35468829      13.75336746 
S       1.37588130       0.79436544      17.62368951 
