46
Lattice="8.562378640804901 0.0 0.0 4.281189320402451 7.415237419758317 0.0 0.0 0.0 23.321537179767724" Properties=species:S:1:pos:R:3 pbc="T T T"
Pd       8.56237864       1.64783054       7.00000000 
Pd       2.85412621       1.64783054       7.00000000 
Pd       5.70825243       1.64783054       7.00000000 
Pd       9.98944175       4.11957634       7.00000000 
Pd       4.28118932       4.11957634       7.00000000 
Pd       7.13531553       4.11957634       7.00000000 
Pd      11.41650485       6.59132215       7.00000000 
Pd       5.70825243       6.59132215       7.00000000 
Pd       8.56237864       6.59132215       7.00000000 
Pd       0.00000000       0.00000000       9.33038429 
Pd       2.85412621       0.00000000       9.33038429 
Pd       5.70825243       0.00000000       9.33038429 
Pd       1.42706311       2.47174581       9.33038429 
Pd       4.28118932       2.47174581       9.33038429 
Pd       7.13531553       2.47174581       9.33038429 
Pd       2.85412621       4.94349161       9.33038429 
Pd       5.70825243       4.94349161       9.33038429 
Pd       8.56237864       4.94349161       9.33038429 
Pd       1.42706311       0.82391527      11.66076859 
Pd       4.28118932       0.82391527      11.66076859 
Pd       7.13531553       0.82391527      11.66076859 
Pd       2.85412621       3.29566108      11.66076859 
Pd       5.70825243       3.29566108      11.66076859 
Pd       8.56237864       3.29566108      11.66076859 
Pd       4.28118932       5.76740688      11.66076859 
Pd       7.13531553       5.76740688      11.66076859 
Pd       9.98944175       5.76740688      11.66076859 
Pd      12.77407962       7.37511831      16.35326357 
Pd       7.20480387       7.37511831      16.35326357 
Pd       5.70825243       0.00092401      16.31490269 
Pd       9.98944175       2.55198403      16.35326357 
Pd       4.30460100       2.48526255      16.31791710 
Pd       7.11190385       2.48526255      16.31791710 
Pd       2.85492643       4.94302961      16.31490269 
Pd       5.70825243       4.91645813      16.31791710 
Pd       8.56157842       4.94302961      16.31490269 
Au       8.56583368       1.64583577      14.00734126 
Au       2.85067118       1.64583577      14.00734126 
Au       5.70825243       1.64778949      13.98893110 
Au       9.98944175       4.11585453      14.00234121 
Au       4.28115377       4.11959687      13.98893110 
Au       7.13535108       4.11959687      13.98893110 
Au      11.41972804       6.59318306      14.00234121 
Au       5.70825243       6.59531169      14.00734126 
Au       8.55915545       6.59318306      14.00234121 
Cl       1.42706311       0.82391527      18.06577208 
