46
Lattice="8.592238345960848 0.0 0.0 4.296119172980424 7.44109668297288 0.0 0.0 0.0 23.354044309324177" Properties=species:S:1:pos:R:3 pbc="T T T"
Pt       8.59223835       1.65357704       7.00000000 
Pt       2.86407945       1.65357704       7.00000000 
Pt       5.72815890       1.65357704       7.00000000 
Pt      10.02427807       4.13394260       7.00000000 
Pt       4.29611917       4.13394260       7.00000000 
Pt       7.16019862       4.13394260       7.00000000 
Pt      11.45631779       6.61430816       7.00000000 
Pt       5.72815890       6.61430816       7.00000000 
Pt       8.59223835       6.61430816       7.00000000 
Pt       0.00000000       0.00000000       9.33851108 
Pt       2.86407945       0.00000000       9.33851108 
Pt       5.72815890       0.00000000       9.33851108 
Pt       1.43203972       2.48036556       9.33851108 
Pt       4.29611917       2.48036556       9.33851108 
Pt       7.16019862       2.48036556       9.33851108 
Pt       2.86407945       4.96073112       9.33851108 
Pt       5.72815890       4.96073112       9.33851108 
Pt       8.59223835       4.96073112       9.33851108 
Pt       1.43203972       0.82678852      11.60769219 
Pt       4.29027532       0.82900739      11.58809007 
Pt       7.16604247       0.82900739      11.58809007 
Pt       2.86307912       3.30098372      11.58809007 
Pt       5.72815890       3.30715408      11.57952845 
Pt       8.59323867       3.30098372      11.58809007 
Pt       4.30096270       5.79147113      11.58809007 
Pt       7.15535509       5.79147113      11.58809007 
Pt      10.02427807       5.78751964      11.61224257 
Pt      12.77267362       7.37430655      15.74410323 
Pt       7.27588252       7.37430655      15.74410323 
Pt      10.02427807       7.44015326      15.64276321 
Pt      10.02427807       2.61394582      15.74410323 
Pt       4.32934851       2.49955053      15.66701469 
Pt       7.12696929       2.49955053      15.66701469 
Pt      11.45550077       4.96120283      15.64276321 
Pt       5.72815890       4.92236119      15.66701469 
Pt       8.59305537       4.96120283      15.64276321 
Cu       8.61110865       1.64268226      13.67878664 
Cu       2.84520914       1.64268226      13.67878664 
Cu       5.72815890       1.65907225      13.61485004 
Cu      10.02427807       4.09257380      13.63136205 
Cu       4.30087816       4.13119500      13.61485004 
Cu       7.15543963       4.13119500      13.61485004 
Cu      11.49214423       6.63499257      13.63136205 
Cu       5.72815890       6.63609772      13.67878664 
Cu       8.55641191       6.63499257      13.63136205 
Cl       1.43203972       0.82678852      17.47415215 
