46
Lattice="8.226599086263533 0.0 0.0 4.113299543131767 7.12444379545407 0.0 0.0 0.0 22.955986702129774" Properties=species:S:1:pos:R:3 pbc="T T T"
Pd       8.22659909       1.58320973       7.00000000 
Pd       2.74219970       1.58320973       7.00000000 
Pd       5.48439939       1.58320973       7.00000000 
Pd       9.59769893       3.95802433       7.00000000 
Pd       4.11329954       3.95802433       7.00000000 
Pd       6.85549924       3.95802433       7.00000000 
Pd      10.96879878       6.33283893       7.00000000 
Pd       5.48439939       6.33283893       7.00000000 
Pd       8.22659909       6.33283893       7.00000000 
Pd       0.00000000       0.00000000       9.23899668 
Pd       2.74219970       0.00000000       9.23899668 
Pd       5.48439939       0.00000000       9.23899668 
Pd       1.37109985       2.37481460       9.23899668 
Pd       4.11329954       2.37481460       9.23899668 
Pd       6.85549924       2.37481460       9.23899668 
Pd       2.74219970       4.74962920       9.23899668 
Pd       5.48439939       4.74962920       9.23899668 
Pd       8.22659909       4.74962920       9.23899668 
Pd       1.37109985       0.79160487      11.47799335 
Pd       4.11329954       0.79160487      11.47799335 
Pd       6.85549924       0.79160487      11.47799335 
Pd       2.74219970       3.16641946      11.47799335 
Pd       5.48439939       3.16641946      11.47799335 
Pd       8.22659909       3.16641946      11.47799335 
Pd       4.11329954       5.54123406      11.47799335 
Pd       6.85549924       5.54123406      11.47799335 
Pd       9.59769893       5.54123406      11.47799335 
Pd      12.32764544       7.11736941      15.70856683 
Pd       6.86775243       7.11736941      15.70856683 
Pd       9.59769893       7.12295241      15.68101828 
Pd       9.59769893       2.38896337      15.70856683 
Pd       4.12114497       2.37934416      15.67981502 
Pd       6.84765381       2.37934416      15.67981502 
Pd      10.96750720       4.75037489      15.68101828 
Pd       5.48439939       4.74057008      15.67981502 
Pd       8.22789067       4.75037489      15.68101828 
Fe       8.22028028       1.58685790      13.60337415 
Fe       2.74851850       1.58685790      13.60337415 
Fe       5.48439939       1.58114031      13.59717627 
Fe       9.59769893       3.95102813      13.60715578 
Fe       4.11150737       3.95905904      13.59717627 
Fe       6.85729141       3.95905904      13.59717627 
Fe      10.97485767       6.33633703      13.60715578 
Fe       5.48439939       6.32554260      13.60337415 
Fe       8.22054020       6.33633703      13.60715578 
Cl       1.37109985       0.79160487      17.72491358 
