46
Lattice="8.850572737399542 0.0 0.0 4.425286368699771 7.664820828629981 0.0 0.0 0.0 23.635283172451828" Properties=species:S:1:pos:R:3 pbc="T T T"
Au       8.85057274       1.70329352       7.00000000 
Au       2.95019091       1.70329352       7.00000000 
Au       5.90038182       1.70329352       7.00000000 
Au      10.32566819       4.25823379       7.00000000 
Au       4.42528637       4.25823379       7.00000000 
Au       7.37547728       4.25823379       7.00000000 
Au      11.80076365       6.81317407       7.00000000 
Au       5.90038182       6.81317407       7.00000000 
Au       8.85057274       6.81317407       7.00000000 
Au       0.00000000       0.00000000       9.40882079 
Au       2.95019091       0.00000000       9.40882079 
Au       5.90038182       0.00000000       9.40882079 
Au       1.47509546       2.55494028       9.40882079 
Au       4.42528637       2.55494028       9.40882079 
Au       7.37547728       2.55494028       9.40882079 
Au       2.95019091       5.10988055       9.40882079 
Au       5.90038182       5.10988055       9.40882079 
Au       8.85057274       5.10988055       9.40882079 
Au       1.47509546       0.85164676      11.81764159 
Au       4.42528637       0.85164676      11.81764159 
Au       7.37547728       0.85164676      11.81764159 
Au       2.95019091       3.40658703      11.81764159 
Au       5.90038182       3.40658703      11.81764159 
Au       8.85057274       3.40658703      11.81764159 
Au       4.42528637       5.96152731      11.81764159 
Au       7.37547728       5.96152731      11.81764159 
Au      10.32566819       5.96152731      11.81764159 
Au      13.19039852       7.61548013      16.28402119 
Au       7.46093787       7.61548013      16.28402119 
Au       5.90038182       0.00090777      16.28979082 
Au      10.32566819       2.65362167      16.28402119 
Au       4.44475099       2.56617818      16.23277987 
Au       7.35601266       2.56617818      16.23277987 
Au       2.95097707       5.10942667      16.28979082 
Au       5.90038182       5.08740475      16.23277987 
Au       8.84978658       5.10942667      16.28979082 
Rh       8.87327227       1.69018793      14.02473307 
Rh       2.92749138       1.69018793      14.02473307 
Rh       5.90038182       1.68114598      14.02048101 
Rh      10.32566819       4.24503464      14.06399989 
Rh       4.40610604       4.26930756      14.02048101 
Rh       7.39465761       4.26930756      14.02048101 
Rh      11.81219446       6.81977365      14.06399989 
Rh       5.90038182       6.83938524      14.02473307 
Rh       8.83914193       6.81977365      14.06399989 
O       1.47509546       0.85164676      17.47642426 
