46
Lattice="8.592238345960848 0.0 0.0 4.296119172980424 7.44109668297288 0.0 0.0 0.0 23.354044309324177" Properties=species:S:1:pos:R:3 pbc="T T T"
Pt       8.59223835       1.65357704       7.00000000 
Pt       2.86407945       1.65357704       7.00000000 
Pt       5.72815890       1.65357704       7.00000000 
Pt      10.02427807       4.13394260       7.00000000 
Pt       4.29611917       4.13394260       7.00000000 
Pt       7.16019862       4.13394260       7.00000000 
Pt      11.45631779       6.61430816       7.00000000 
Pt       5.72815890       6.61430816       7.00000000 
Pt       8.59223835       6.61430816       7.00000000 
Pt       0.00000000       0.00000000       9.33851108 
Pt       2.86407945       0.00000000       9.33851108 
Pt       5.72815890       0.00000000       9.33851108 
Pt       1.43203972       2.48036556       9.33851108 
Pt       4.29611917       2.48036556       9.33851108 
Pt       7.16019862       2.48036556       9.33851108 
Pt       2.86407945       4.96073112       9.33851108 
Pt       5.72815890       4.96073112       9.33851108 
Pt       8.59223835       4.96073112       9.33851108 
Pt       1.43203972       0.82678852      11.65188882 
Pt       4.29038694       0.82999542      11.64313443 
Pt       7.16593085       0.82999542      11.64313443 
Pt       2.86399059       3.30058637      11.64313443 
Pt       5.72815890       3.30715408      11.63614969 
Pt       8.59232720       3.30058637      11.64313443 
Pt       4.30176255       5.79088045      11.64313443 
Pt       7.15455525       5.79088045      11.64313443 
Pt      10.02427807       5.78751964      11.63516930 
Pt      12.81867262       7.40086409      15.81491967 
Pt       7.22988352       7.40086409      15.81491967 
Pt      10.02427807       7.43153813      15.68355544 
Pt      10.02427807       2.56083075      15.81491967 
Pt       4.32140927       2.49496680      15.71315267 
Pt       7.13490853       2.49496680      15.71315267 
Pt      11.44803985       4.96551040      15.68355544 
Pt       5.72815890       4.93152864      15.71315267 
Pt       8.60051629       4.96551040      15.68355544 
Fe       8.60660092       1.64528480      13.71410405 
Fe       2.84971687       1.64528480      13.71410405 
Fe       5.72815890       1.65631513      13.67994126 
Fe      10.02427807       4.12256970      13.66947125 
Fe       4.29849043       4.13257356      13.67994126 
Fe       7.15782736       4.13257356      13.67994126 
Fe      11.46616702       6.61999461      13.66947125 
Fe       5.72815890       6.63089264      13.71410405 
Fe       8.58238912       6.61999461      13.66947125 
S       1.43203972       0.82678852      17.36829828 
