46
Lattice="8.394488863534217 0.0 0.0 4.197244431767109 7.269840607606193 0.0 0.0 0.0 23.138761940948747" Properties=species:S:1:pos:R:3 pbc="T T T"
Pd       8.39448886       1.61552014       7.00000000 
Pd       2.79816295       1.61552014       7.00000000 
Pd       5.59632591       1.61552014       7.00000000 
Pd       9.79357034       4.03880034       7.00000000 
Pd       4.19724443       4.03880034       7.00000000 
Pd       6.99540739       4.03880034       7.00000000 
Pd      11.19265182       6.46208054       7.00000000 
Pd       5.59632591       6.46208054       7.00000000 
Pd       8.39448886       6.46208054       7.00000000 
Pd       0.00000000       0.00000000       9.28469049 
Pd       2.79816295       0.00000000       9.28469049 
Pd       5.59632591       0.00000000       9.28469049 
Pd       1.39908148       2.42328020       9.28469049 
Pd       4.19724443       2.42328020       9.28469049 
Pd       6.99540739       2.42328020       9.28469049 
Pd       2.79816295       4.84656041       9.28469049 
Pd       5.59632591       4.84656041       9.28469049 
Pd       8.39448886       4.84656041       9.28469049 
Pd       1.39908148       0.80776007      11.56938097 
Pd       4.19724443       0.80776007      11.56938097 
Pd       6.99540739       0.80776007      11.56938097 
Pd       2.79816295       3.23104027      11.56938097 
Pd       5.59632591       3.23104027      11.56938097 
Pd       8.39448886       3.23104027      11.56938097 
Pd       4.19724443       5.65432047      11.56938097 
Pd       6.99540739       5.65432047      11.56938097 
Pd       9.79357034       5.65432047      11.56938097 
Pd      12.54673773       7.24386241      16.04249569 
Pd       7.04040295       7.24386241      16.04249569 
Pd       9.79357034       7.26381286      15.94343516 
Pd       9.79357034       2.47523660      16.04249569 
Pd       4.21171286       2.43163355      15.95748627 
Pd       6.98093896       2.43163355      15.95748627 
Pd      11.18743164       4.84957428      15.94343516 
Pd       5.59632591       4.82985371      15.95748627 
Pd       8.39970904       4.84957428      15.94343516 
Rh       8.39883951       1.61300829      13.75767728 
Rh       2.79381230       1.61300829      13.75767728 
Rh       5.59632591       1.61289322      13.75537383 
Rh       9.79357034       4.00930341      13.77457287 
Rh       4.19496946       4.04011379      13.75537383 
Rh       6.99768236       4.04011379      13.75537383 
Rh      11.21819691       6.47682900      13.77457287 
Rh       5.59632591       6.46710424      13.75767728 
Rh       8.36894378       6.47682900      13.77457287 
S       1.39908148       0.80776007      17.58447151 
