46
Lattice="8.394488863534217 0.0 0.0 4.197244431767109 7.269840607606193 0.0 0.0 0.0 23.138761940948747" Properties=species:S:1:pos:R:3 pbc="T T T"
Pd       8.39448886       1.61552014       7.00000000 
Pd       2.79816295       1.61552014       7.00000000 
Pd       5.59632591       1.61552014       7.00000000 
Pd       9.79357034       4.03880034       7.00000000 
Pd       4.19724443       4.03880034       7.00000000 
Pd       6.99540739       4.03880034       7.00000000 
Pd      11.19265182       6.46208054       7.00000000 
Pd       5.59632591       6.46208054       7.00000000 
Pd       8.39448886       6.46208054       7.00000000 
Pd       0.00000000       0.00000000       9.28469049 
Pd       2.79816295       0.00000000       9.28469049 
Pd       5.59632591       0.00000000       9.28469049 
Pd       1.39908148       2.42328020       9.28469049 
Pd       4.19724443       2.42328020       9.28469049 
Pd       6.99540739       2.42328020       9.28469049 
Pd       2.79816295       4.84656041       9.28469049 
Pd       5.59632591       4.84656041       9.28469049 
Pd       8.39448886       4.84656041       9.28469049 
Pd       1.39908148       0.80776007      11.56938097 
Pd       4.19724443       0.80776007      11.56938097 
Pd       6.99540739       0.80776007      11.56938097 
Pd       2.79816295       3.23104027      11.56938097 
Pd       5.59632591       3.23104027      11.56938097 
Pd       8.39448886       3.23104027      11.56938097 
Pd       4.19724443       5.65432047      11.56938097 
Pd       6.99540739       5.65432047      11.56938097 
Pd       9.79357034       5.65432047      11.56938097 
Pd      12.50694276       7.22088677      16.37622825 
Pd       7.08019792       7.22088677      16.37622825 
Pd       9.79357034       7.26824731      16.26101916 
Pd       9.79357034       2.52118788      16.37622825 
Pd       4.22635292       2.44008600      16.30206983 
Pd       6.96629890       2.44008600      16.30206983 
Pd      11.19127198       4.84735705      16.26101916 
Pd       5.59632591       4.81294882      16.30206983 
Pd       8.39586870       4.84735705      16.26101916 
Ag       8.39413851       1.61572241      13.96756805 
Ag       2.79851331       1.61572241      13.96756805 
Ag       5.59632591       1.61788928      13.93443531 
Ag       9.79357034       4.03866821      13.92737974 
Ag       4.19929618       4.03761576      13.93443531 
Ag       6.99335564       4.03761576      13.93443531 
Ag      11.19276624       6.46214660      13.92737974 
Ag       5.59632591       6.46167599      13.96756805 
Ag       8.39437444       6.46214660      13.92737974 
S       1.39908148       0.80776007      17.81056467 
