46
Lattice="8.310543974898875 0.0 0.0 4.155271987449438 7.197142201530131 0.0 0.0 0.0 23.04737432153926" Properties=species:S:1:pos:R:3 pbc="T T T"
Pd       8.31054397       1.59936493       7.00000000 
Pd       2.77018132       1.59936493       7.00000000 
Pd       5.54036265       1.59936493       7.00000000 
Pd       9.69563464       3.99841233       7.00000000 
Pd       4.15527199       3.99841233       7.00000000 
Pd       6.92545331       3.99841233       7.00000000 
Pd      11.08072530       6.39745973       7.00000000 
Pd       5.54036265       6.39745973       7.00000000 
Pd       8.31054397       6.39745973       7.00000000 
Pd       0.00000000       0.00000000       9.26184358 
Pd       2.77018132       0.00000000       9.26184358 
Pd       5.54036265       0.00000000       9.26184358 
Pd       1.38509066       2.39904740       9.26184358 
Pd       4.15527199       2.39904740       9.26184358 
Pd       6.92545331       2.39904740       9.26184358 
Pd       2.77018132       4.79809480       9.26184358 
Pd       5.54036265       4.79809480       9.26184358 
Pd       8.31054397       4.79809480       9.26184358 
Pd       1.38509066       0.79968247      11.52368716 
Pd       4.15527199       0.79968247      11.52368716 
Pd       6.92545331       0.79968247      11.52368716 
Pd       2.77018132       3.19872987      11.52368716 
Pd       5.54036265       3.19872987      11.52368716 
Pd       8.31054397       3.19872987      11.52368716 
Pd       4.15527199       5.59777727      11.52368716 
Pd       6.92545331       5.59777727      11.52368716 
Pd       9.69563464       5.59777727      11.52368716 
Pd      12.42515368       7.17366582      15.71697356 
Pd       6.96611560       7.17366582      15.71697356 
Pd       9.69563464       7.19272329      15.58963776 
Pd       9.69563464       2.44600017      15.71697356 
Pd       4.17205382       2.40873640      15.62422970 
Pd       6.90867148       2.40873640      15.62422970 
Pd      11.07689841       4.80030426      15.58963776 
Pd       5.54036265       4.77871680      15.62422970 
Pd       8.31437086       4.80030426      15.58963776 
Ni       8.32551227       1.59072298      13.58706928 
Ni       2.75521303       1.59072298      13.58706928 
Ni       5.54036265       1.60485612      13.56806710 
Ni       9.69563464       3.95966026      13.57282647 
Ni       4.16002750       3.99566674      13.56806710 
Ni       6.92069780       3.99566674      13.56806710 
Ni      11.11428558       6.41683577      13.57282647 
Ni       5.54036265       6.41474364      13.58706928 
Ni       8.27698370       6.41683577      13.57282647 
S       1.38509066       0.79968247      17.28798948 
