46
Lattice="8.592238345960848 0.0 0.0 4.296119172980424 7.44109668297288 0.0 0.0 0.0 23.354044309324177" Properties=species:S:1:pos:R:3 pbc="T T T"
Pt       8.59223835       1.65357704       7.00000000 
Pt       2.86407945       1.65357704       7.00000000 
Pt       5.72815890       1.65357704       7.00000000 
Pt      10.02427807       4.13394260       7.00000000 
Pt       4.29611917       4.13394260       7.00000000 
Pt       7.16019862       4.13394260       7.00000000 
Pt      11.45631779       6.61430816       7.00000000 
Pt       5.72815890       6.61430816       7.00000000 
Pt       8.59223835       6.61430816       7.00000000 
Pt       0.00000000       0.00000000       9.33851108 
Pt       2.86407945       0.00000000       9.33851108 
Pt       5.72815890       0.00000000       9.33851108 
Pt       1.43203972       2.48036556       9.33851108 
Pt       4.29611917       2.48036556       9.33851108 
Pt       7.16019862       2.48036556       9.33851108 
Pt       2.86407945       4.96073112       9.33851108 
Pt       5.72815890       4.96073112       9.33851108 
Pt       8.59223835       4.96073112       9.33851108 
Pt       1.43203972       0.82678852      11.58800609 
Pt       4.28966487       0.82402430      11.57097613 
Pt       7.16665293       0.82402430      11.57097613 
Pt       2.85845841       3.30294660      11.57097613 
Pt       5.72815890       3.30715408      11.55572085 
Pt       8.59785938       3.30294660      11.57097613 
Pt       4.29695244       5.79449135      11.57097613 
Pt       7.15936535       5.79449135      11.57097613 
Pt      10.02427807       5.78751964      11.55711570 
Pt      12.75497254       7.36408683      16.36495013 
Pt       7.29358360       7.36408683      16.36495013 
Pt       5.72815890       0.00146680      16.27187555 
Pt      10.02427807       2.63438526      16.36495013 
Pt       4.35008186       2.51152093      16.26600598 
Pt       7.10623593       2.51152093      16.26600598 
Pt       2.86534973       4.95999772      16.27187555 
Pt       5.72815890       4.89842038      16.26600598 
Pt       8.59096806       4.95999772      16.27187555 
Au       8.59732870       1.65063812      13.95583039 
Au       2.85898909       1.65063812      13.95583039 
Au       5.72815890       1.65066822      13.88952473 
Au      10.02427807       4.13425785      13.91613483 
Au       4.29360006       4.13539701      13.88952473 
Au       7.16271774       4.13539701      13.88952473 
Au      11.45604478       6.61415054      13.91613483 
Au       5.72815890       6.62018600      13.95583039 
Au       8.59251136       6.61415054      13.91613483 
S       1.43203972       0.82678852      17.70118792 
