46
Lattice="8.592238345960848 0.0 0.0 4.296119172980424 7.44109668297288 0.0 0.0 0.0 23.354044309324177" Properties=species:S:1:pos:R:3 pbc="T T T"
Pt       8.59223835       1.65357704       7.00000000 
Pt       2.86407945       1.65357704       7.00000000 
Pt       5.72815890       1.65357704       7.00000000 
Pt      10.02427807       4.13394260       7.00000000 
Pt       4.29611917       4.13394260       7.00000000 
Pt       7.16019862       4.13394260       7.00000000 
Pt      11.45631779       6.61430816       7.00000000 
Pt       5.72815890       6.61430816       7.00000000 
Pt       8.59223835       6.61430816       7.00000000 
Pt       0.00000000       0.00000000       9.33851108 
Pt       2.86407945       0.00000000       9.33851108 
Pt       5.72815890       0.00000000       9.33851108 
Pt       1.43203972       2.48036556       9.33851108 
Pt       4.29611917       2.48036556       9.33851108 
Pt       7.16019862       2.48036556       9.33851108 
Pt       2.86407945       4.96073112       9.33851108 
Pt       5.72815890       4.96073112       9.33851108 
Pt       8.59223835       4.96073112       9.33851108 
Pt       1.43203972       0.82678852      11.59127598 
Pt       4.28879039       0.82465928      11.56606814 
Pt       7.16752740       0.82465928      11.56606814 
Pt       2.85857108       3.30187179      11.56606814 
Pt       5.72815890       3.30715408      11.54996356 
Pt       8.59774672       3.30187179      11.56606814 
Pt       4.29793958       5.79493118      11.56606814 
Pt       7.15837821       5.79493118      11.56606814 
Pt      10.02427807       5.78751964      11.58425399 
Pt      12.74545591       7.35859240      16.32931136 
Pt       7.30310023       7.35859240      16.32931136 
Pt       5.72815890       0.00775706      16.25003770 
Pt      10.02427807       2.64537413      16.32931136 
Pt       4.33962742       2.50548506      16.24959949 
Pt       7.11669037       2.50548506      16.24959949 
Pt       2.87079726       4.95685259      16.25003770 
Pt       5.72815890       4.91049212      16.24959949 
Pt       8.58552053       4.95685259      16.25003770 
Au       8.60057781       1.64876225      13.95980848 
Au       2.85573998       1.64876225      13.95980848 
Au       5.72815890       1.65348848      13.87698442 
Au      10.02427807       4.12387206      13.91673506 
Au       4.29604248       4.13398688      13.87698442 
Au       7.16027532       4.13398688      13.87698442 
Au      11.46503914       6.61934343      13.91673506 
Au       5.72815890       6.62393775      13.95980848 
Au       8.58351700       6.61934343      13.91673506 
Cl       1.43203972       0.82678852      17.94592823 
