46
Lattice="8.423763084275341 0.0 0.0 4.211881542137671 7.295192826444 0.0 0.0 0.0 23.170631675808018" Properties=species:S:1:pos:R:3 pbc="T T T"
Pt       8.42376308       1.62115396       7.00000000 
Pt       2.80792103       1.62115396       7.00000000 
Pt       5.61584206       1.62115396       7.00000000 
Pt       9.82772360       4.05288490       7.00000000 
Pt       4.21188154       4.05288490       7.00000000 
Pt       7.01980257       4.05288490       7.00000000 
Pt      11.23168411       6.48461585       7.00000000 
Pt       5.61584206       6.48461585       7.00000000 
Pt       8.42376308       6.48461585       7.00000000 
Pt       0.00000000       0.00000000       9.29265792 
Pt       2.80792103       0.00000000       9.29265792 
Pt       5.61584206       0.00000000       9.29265792 
Pt       1.40396051       2.43173094       9.29265792 
Pt       4.21188154       2.43173094       9.29265792 
Pt       7.01980257       2.43173094       9.29265792 
Pt       2.80792103       4.86346188       9.29265792 
Pt       5.61584206       4.86346188       9.29265792 
Pt       8.42376308       4.86346188       9.29265792 
Pt       1.40396051       0.81057698      11.60666389 
Pt       4.21141524       0.80998434      11.60564512 
Pt       7.02026887       0.80998434      11.60564512 
Pt       2.80717463       3.24220042      11.60564512 
Pt       5.61584206       3.24230792      11.59934142 
Pt       8.42450948       3.24220042      11.60564512 
Pt       4.21160145       5.67473901      11.60564512 
Pt       7.02008267       5.67473901      11.60564512 
Pt       9.82772360       5.67403887      11.65370114 
Pt      12.58752213       7.26740929      15.71295507 
Pt       7.06792507       7.26740929      15.71295507 
Pt       9.82772360       7.29288631      15.65252895 
Pt       9.82772360       2.48729802      15.71295507 
Pt       4.22963250       2.44197946      15.66040150 
Pt       7.00205161       2.44197946      15.66040150 
Pt      11.22968661       4.86461514      15.65252895 
Pt       5.61584206       4.84296484      15.66040150 
Pt       8.42576059       4.86461514      15.65252895 
Ni       8.44204389       1.61059953      13.64510134 
Ni       2.78964022       1.61059953      13.64510134 
Ni       5.61584206       1.62377843      13.62088141 
Ni       9.82772360       3.97625538      13.65129191 
Ni       4.21415440       4.05157267      13.62088141 
Ni       7.01752971       4.05157267      13.62088141 
Ni      11.29804723       6.52293061      13.65129191 
Ni       5.61584206       6.50572470      13.64510134 
Ni       8.35739997       6.52293061      13.65129191 
Cl       1.40396051       0.81057698      17.66220431 
