47
Lattice="7.991268292630401 0.0 0.0 3.9956341463152003 6.920641349875024 0.0 0.0 0.0 22.699790984278494" Properties=species:S:1:pos:R:3 pbc="T T T"
Rh       7.99126829       1.53792030       7.00000000 
Rh       2.66375610       1.53792030       7.00000000 
Rh       5.32751220       1.53792030       7.00000000 
Rh       9.32314634       3.84480075       7.00000000 
Rh       3.99563415       3.84480075       7.00000000 
Rh       6.65939024       3.84480075       7.00000000 
Rh      10.65502439       6.15168120       7.00000000 
Rh       5.32751220       6.15168120       7.00000000 
Rh       7.99126829       6.15168120       7.00000000 
Rh       0.00000000       0.00000000       9.17494775 
Rh       2.66375610       0.00000000       9.17494775 
Rh       5.32751220       0.00000000       9.17494775 
Rh       1.33187805       2.30688045       9.17494775 
Rh       3.99563415       2.30688045       9.17494775 
Rh       6.65939024       2.30688045       9.17494775 
Rh       2.66375610       4.61376090       9.17494775 
Rh       5.32751220       4.61376090       9.17494775 
Rh       7.99126829       4.61376090       9.17494775 
Rh       1.33187805       0.76896015      11.34989549 
Rh       3.99563415       0.76896015      11.34989549 
Rh       6.65939024       0.76896015      11.34989549 
Rh       2.66375610       3.07584060      11.34989549 
Rh       5.32751220       3.07584060      11.34989549 
Rh       7.99126829       3.07584060      11.34989549 
Rh       3.99563415       5.38272105      11.34989549 
Rh       6.65939024       5.38272105      11.34989549 
Rh       9.32314634       5.38272105      11.34989549 
Rh      11.95521861       6.88581914      15.83138867 
Rh       6.70075478       6.88734468      15.82991403 
Rh       9.32829853       6.91233745      15.62328598 
Rh       9.32918104       2.34795966      15.57488761 
Rh       3.99852996       2.29032779      15.61536326 
Rh       6.66855811       2.29058871      15.61717894 
Rh       2.67264853       4.59085202      15.59549460 
Rh       5.33392657       4.53300424      15.61568436 
Rh       7.99441802       4.59124571      15.59395512 
Cu       7.98763814       1.49144839      13.53362799 
Cu       2.67263396       1.49178122      13.53312017 
Cu       5.33135143       1.52908146      13.50721822 
Cu       9.32658992       3.84931869      13.48133395 
Cu       3.99984296       3.83600975      13.49666607 
Cu       6.66156553       3.83563875      13.49674926 
Cu      10.67596479       6.16058884      13.53815136 
Cu       5.32899497       6.16732394      13.57589924 
Cu       7.97393878       6.16173599      13.53789513 
O       1.33647407       0.00222682      17.37387491 
H       1.33385185       0.88751195      17.79910659 
