46
Lattice="8.65006978116697 0.0 0.0 4.325034890583485 7.491180174998695 0.0 0.0 0.0 23.417003201478764" Properties=species:S:1:pos:R:3 pbc="T T T"
Ag       8.65006978       1.66470671       7.00000000 
Ag       2.88335659       1.66470671       7.00000000 
Ag       5.76671319       1.66470671       7.00000000 
Ag      10.09174808       4.16176676       7.00000000 
Ag       4.32503489       4.16176676       7.00000000 
Ag       7.20839148       4.16176676       7.00000000 
Ag      11.53342637       6.65882682       7.00000000 
Ag       5.76671319       6.65882682       7.00000000 
Ag       8.65006978       6.65882682       7.00000000 
Ag       0.00000000       0.00000000       9.35425080 
Ag       2.88335659       0.00000000       9.35425080 
Ag       5.76671319       0.00000000       9.35425080 
Ag       1.44167830       2.49706006       9.35425080 
Ag       4.32503489       2.49706006       9.35425080 
Ag       7.20839148       2.49706006       9.35425080 
Ag       2.88335659       4.99412012       9.35425080 
Ag       5.76671319       4.99412012       9.35425080 
Ag       8.65006978       4.99412012       9.35425080 
Ag       1.44167830       0.83235335      11.70850160 
Ag       4.32503489       0.83235335      11.70850160 
Ag       7.20839148       0.83235335      11.70850160 
Ag       2.88335659       3.32941341      11.70850160 
Ag       5.76671319       3.32941341      11.70850160 
Ag       8.65006978       3.32941341      11.70850160 
Ag       4.32503489       5.82647347      11.70850160 
Ag       7.20839148       5.82647347      11.70850160 
Ag      10.09174808       5.82647347      11.70850160 
Ag      12.94091134       7.47143865      16.30951564 
Ag       7.24258481       7.47143865      16.30951564 
Ag      10.09174808       7.48806665      16.30134290 
Ag      10.09174808       2.53654311      16.30951564 
Ag       4.33188323       2.50101395      16.24287155 
Ag       7.20154315       2.50101395      16.24287155 
Ag      11.53072998       4.99567688      16.30134290 
Ag       5.76671319       4.98621234      16.24287155 
Ag       8.65276617       4.99567688      16.30134290 
Rh       8.66675186       1.65507530      13.96779910 
Rh       2.86667452       1.65507530      13.96779910 
Rh       5.76671319       1.63655581      13.99220124 
Rh      10.09174808       4.14147552      14.03518739 
Rh       4.30065550       4.17584221      13.99220124 
Rh       7.23277088       4.17584221      13.99220124 
Rh      11.55099911       6.66897245      14.03518739 
Rh       5.76671319       6.67808962      13.96779910 
Rh       8.63249705       6.66897245      14.03518739 
O       1.44167830       0.83235335      17.62320423 
