46
Lattice="8.235898954649699 0.0 0.0 4.117949477324849 7.13249771772834 0.0 0.0 0.0 22.966111116450286" Properties=species:S:1:pos:R:3 pbc="T T T"
Rh       8.23589895       1.58499949       7.00000000 
Rh       2.74529965       1.58499949       7.00000000 
Rh       5.49059930       1.58499949       7.00000000 
Rh       9.60854878       3.96249873       7.00000000 
Rh       4.11794948       3.96249873       7.00000000 
Rh       6.86324913       3.96249873       7.00000000 
Rh      10.98119861       6.33999797       7.00000000 
Rh       5.49059930       6.33999797       7.00000000 
Rh       8.23589895       6.33999797       7.00000000 
Rh       0.00000000       0.00000000       9.24152778 
Rh       2.74529965       0.00000000       9.24152778 
Rh       5.49059930       0.00000000       9.24152778 
Rh       1.37264983       2.37749924       9.24152778 
Rh       4.11794948       2.37749924       9.24152778 
Rh       6.86324913       2.37749924       9.24152778 
Rh       2.74529965       4.75499848       9.24152778 
Rh       5.49059930       4.75499848       9.24152778 
Rh       8.23589895       4.75499848       9.24152778 
Rh       1.37264983       0.79249975      11.48305556 
Rh       4.11794948       0.79249975      11.48305556 
Rh       6.86324913       0.79249975      11.48305556 
Rh       2.74529965       3.16999899      11.48305556 
Rh       5.49059930       3.16999899      11.48305556 
Rh       8.23589895       3.16999899      11.48305556 
Rh       4.11794948       5.54749822      11.48305556 
Rh       6.86324913       5.54749822      11.48305556 
Rh       9.60854878       5.54749822      11.48305556 
Rh       8.24163184       1.58168961      13.66951283 
Rh       2.73956676       1.58168961      13.66951283 
Rh       5.49059930       1.57949649      13.66786717 
Rh       9.60854878       3.96328318      13.66743480 
Rh       4.11318374       3.96525023      13.66786717 
Rh       6.86801487       3.96525023      13.66786717 
Rh      10.98051925       6.33960575      13.66743480 
Rh       5.49059930       6.34661774      13.66951283 
Rh       8.23657831       6.33960575      13.66743480 
Rh      12.32198691       7.11410246      15.90804070 
Rh       6.89511065       7.11410246      15.90804070 
Rh       9.60854878       7.13121775      15.81042472 
Rh       9.60854878       2.41428976      15.90804070 
Rh       4.15267340       2.39754711      15.82185299 
Rh       6.82852521       2.39754711      15.82185299 
Rh      10.98009012       4.75563846      15.81042472 
Rh       5.49059930       4.71490275      15.82185299 
Rh       8.23700744       4.75563846      15.81042472 
S       1.37264983       0.79249975      17.47479509 
