46
Lattice="8.235898954649699 0.0 0.0 4.117949477324849 7.13249771772834 0.0 0.0 0.0 22.966111116450286" Properties=species:S:1:pos:R:3 pbc="T T T"
Rh       8.23589895       1.58499949       7.00000000 
Rh       2.74529965       1.58499949       7.00000000 
Rh       5.49059930       1.58499949       7.00000000 
Rh       9.60854878       3.96249873       7.00000000 
Rh       4.11794948       3.96249873       7.00000000 
Rh       6.86324913       3.96249873       7.00000000 
Rh      10.98119861       6.33999797       7.00000000 
Rh       5.49059930       6.33999797       7.00000000 
Rh       8.23589895       6.33999797       7.00000000 
Rh       0.00000000       0.00000000       9.24152778 
Rh       2.74529965       0.00000000       9.24152778 
Rh       5.49059930       0.00000000       9.24152778 
Rh       1.37264983       2.37749924       9.24152778 
Rh       4.11794948       2.37749924       9.24152778 
Rh       6.86324913       2.37749924       9.24152778 
Rh       2.74529965       4.75499848       9.24152778 
Rh       5.49059930       4.75499848       9.24152778 
Rh       8.23589895       4.75499848       9.24152778 
Rh       1.37264983       0.79249975      11.48305556 
Rh       4.11794948       0.79249975      11.48305556 
Rh       6.86324913       0.79249975      11.48305556 
Rh       2.74529965       3.16999899      11.48305556 
Rh       5.49059930       3.16999899      11.48305556 
Rh       8.23589895       3.16999899      11.48305556 
Rh       4.11794948       5.54749822      11.48305556 
Rh       6.86324913       5.54749822      11.48305556 
Rh       9.60854878       5.54749822      11.48305556 
Rh       8.23963372       1.58284322      13.66643428 
Rh       2.74156488       1.58284322      13.66643428 
Rh       5.49059930       1.58380089      13.66183992 
Rh       9.60854878       3.94494512      13.68914195 
Rh       4.11691146       3.96309803      13.66183992 
Rh       6.86428715       3.96309803      13.66183992 
Rh      10.99640048       6.34877478      13.68914195 
Rh       5.49059930       6.34431051      13.66643428 
Rh       8.22069708       6.34877478      13.68914195 
Rh      12.31094992       7.10773025      15.85900398 
Rh       6.90614764       7.10773025      15.85900398 
Rh       5.49059930       0.00062978      15.81578861 
Rh       9.60854878       2.42703417      15.85900398 
Rh       4.14572732       2.39353678      15.81113621 
Rh       6.83547129       2.39353678      15.81113621 
Rh       2.74584506       4.75468359      15.81578861 
Rh       5.49059930       4.72292339      15.81113621 
Rh       8.23535355       4.75468359      15.81578861 
Cl       1.37264983       0.79249975      17.67465465 
