46
Lattice="8.478433752169561 0.0 0.0 4.239216876084781 7.342539013682256 0.0 0.0 0.0 23.230149560358235" Properties=species:S:1:pos:R:3 pbc="T T T"
Pd       8.47843375       1.63167534       7.00000000 
Pd       2.82614458       1.63167534       7.00000000 
Pd       5.65228917       1.63167534       7.00000000 
Pd       9.89150604       4.07918834       7.00000000 
Pd       4.23921688       4.07918834       7.00000000 
Pd       7.06536146       4.07918834       7.00000000 
Pd      11.30457834       6.52670135       7.00000000 
Pd       5.65228917       6.52670135       7.00000000 
Pd       8.47843375       6.52670135       7.00000000 
Pd       0.00000000       0.00000000       9.30753739 
Pd       2.82614458       0.00000000       9.30753739 
Pd       5.65228917       0.00000000       9.30753739 
Pd       1.41307229       2.44751300       9.30753739 
Pd       4.23921688       2.44751300       9.30753739 
Pd       7.06536146       2.44751300       9.30753739 
Pd       2.82614458       4.89502601       9.30753739 
Pd       5.65228917       4.89502601       9.30753739 
Pd       8.47843375       4.89502601       9.30753739 
Pd       1.41307229       0.81583767      11.61507478 
Pd       4.23921688       0.81583767      11.61507478 
Pd       7.06536146       0.81583767      11.61507478 
Pd       2.82614458       3.26335067      11.61507478 
Pd       5.65228917       3.26335067      11.61507478 
Pd       8.47843375       3.26335067      11.61507478 
Pd       4.23921688       5.71086368      11.61507478 
Pd       7.06536146       5.71086368      11.61507478 
Pd       9.89150604       5.71086368      11.61507478 
Pd      12.64375572       7.29987577      16.36097687 
Pd       7.13925637       7.29987577      16.36097687 
Pd       5.65228917       0.00062368      16.26826543 
Pd       9.89150604       2.53283949      16.36097687 
Pd       4.26536412       2.46260912      16.28546376 
Pd       7.03921422       2.46260912      16.28546376 
Pd       2.82668471       4.89471417      16.26826543 
Pd       5.65228917       4.86483378      16.28546376 
Pd       8.47789363       4.89471417      16.26826543 
Ag       8.48368345       1.62864442      13.99695053 
Ag       2.82089489       1.62864442      13.99695053 
Ag       5.65228917       1.63270525      13.94677660 
Ag       9.89150604       4.07303494      13.96520713 
Ag       4.24010881       4.07867338      13.94677660 
Ag       7.06446953       4.07867338      13.94677660 
Ag      11.30990734       6.52977805      13.96520713 
Ag       5.65228917       6.53276317      13.99695053 
Ag       8.47310475       6.52977805      13.96520713 
Cl       1.41307229       0.81583767      18.08527425 
