46
Lattice="8.850572737399542 0.0 0.0 4.425286368699771 7.664820828629981 0.0 0.0 0.0 23.635283172451828" Properties=species:S:1:pos:R:3 pbc="T T T"
Au       8.85057274       1.70329352       7.00000000 
Au       2.95019091       1.70329352       7.00000000 
Au       5.90038182       1.70329352       7.00000000 
Au      10.32566819       4.25823379       7.00000000 
Au       4.42528637       4.25823379       7.00000000 
Au       7.37547728       4.25823379       7.00000000 
Au      11.80076365       6.81317407       7.00000000 
Au       5.90038182       6.81317407       7.00000000 
Au       8.85057274       6.81317407       7.00000000 
Au       0.00000000       0.00000000       9.40882079 
Au       2.95019091       0.00000000       9.40882079 
Au       5.90038182       0.00000000       9.40882079 
Au       1.47509546       2.55494028       9.40882079 
Au       4.42528637       2.55494028       9.40882079 
Au       7.37547728       2.55494028       9.40882079 
Au       2.95019091       5.10988055       9.40882079 
Au       5.90038182       5.10988055       9.40882079 
Au       8.85057274       5.10988055       9.40882079 
Au       1.47509546       0.85164676      11.81764159 
Au       4.42528637       0.85164676      11.81764159 
Au       7.37547728       0.85164676      11.81764159 
Au       2.95019091       3.40658703      11.81764159 
Au       5.90038182       3.40658703      11.81764159 
Au       8.85057274       3.40658703      11.81764159 
Au       4.42528637       5.96152731      11.81764159 
Au       7.37547728       5.96152731      11.81764159 
Au      10.32566819       5.96152731      11.81764159 
Au      13.15948331       7.59763123      16.39418506 
Au       7.49185308       7.59763123      16.39418506 
Au      10.32566819       7.66226955      16.34090260 
Au      10.32566819       2.68931947      16.39418506 
Au       4.44948364       2.56891058      16.31128534 
Au       7.35128001       2.56891058      16.31128534 
Au      11.79855417       5.11115619      16.34090260 
Au       5.90038182       5.08193994      16.31128534 
Au       8.85278221       5.11115619      16.34090260 
Pd       8.85875821       1.69856763      14.08135002 
Pd       2.94200544       1.69856763      14.08135002 
Pd       5.90038182       1.69412790      14.05786695 
Pd      10.32566819       4.24905276      14.07851108 
Pd       4.41734871       4.26281660      14.05786695 
Pd       7.38341494       4.26281660      14.05786695 
Pd      11.80871466       6.81776459      14.07851108 
Pd       5.90038182       6.82262584      14.08135002 
Pd       8.84262173       6.81776459      14.07851108 
O       1.47509546       0.85164676      17.50473987 
