47
Lattice="8.33952545343259 0.0 0.0 4.169762726716295 7.22224089817956 0.0 0.0 0.0 23.078925359049936" Properties=species:S:1:pos:R:3 pbc="T T T"
Pt       8.33952545       1.60494242       7.00000000 
Pt       2.77984182       1.60494242       7.00000000 
Pt       5.55968364       1.60494242       7.00000000 
Pt       9.72944636       4.01235605       7.00000000 
Pt       4.16976273       4.01235605       7.00000000 
Pt       6.94960454       4.01235605       7.00000000 
Pt      11.11936727       6.41976969       7.00000000 
Pt       5.55968364       6.41976969       7.00000000 
Pt       8.33952545       6.41976969       7.00000000 
Pt       0.00000000       0.00000000       9.26973134 
Pt       2.77984182       0.00000000       9.26973134 
Pt       5.55968364       0.00000000       9.26973134 
Pt       1.38992091       2.40741363       9.26973134 
Pt       4.16976273       2.40741363       9.26973134 
Pt       6.94960454       2.40741363       9.26973134 
Pt       2.77984182       4.81482727       9.26973134 
Pt       5.55968364       4.81482727       9.26973134 
Pt       8.33952545       4.81482727       9.26973134 
Pt       1.38985033       0.80243046      11.62297448 
Pt       4.16711007       0.80050722      11.62282467 
Pt       6.94602294       0.80320797      11.61717724 
Pt       2.77681463       3.20856957      11.62282467 
Pt       5.55903044       3.20950772      11.62143546 
Pt       8.33753092       3.20580374      11.64954938 
Pt       4.16860997       5.61382834      11.61717724 
Pt       6.94507294       5.61761171      11.64954938 
Pt       9.72895877       5.61701697      11.63465120 
Pt       0.00287792       0.00166157      15.84315739 
Pt       6.96101840       7.21893512      15.73575198 
Pt       9.71160868       7.21899410      15.73753434 
Pt       9.73229040       2.41895121      15.73575198 
Pt       4.16743663       2.40607066      15.74442378 
Pt       6.94297832       2.41805718      15.74139334 
Pt      11.10763662       4.80100278      15.73753434 
Pt       5.56558810       4.80376702      15.74139334 
Pt       8.33643592       4.81304352      15.73409337 
Co       8.32992170       1.49240380      13.70804081 
Co       2.77673203       1.60314699      13.68023208 
Co       5.56295205       1.60092020      13.67959660 
Co       9.75058091       4.01842642      13.68415904 
Co       4.16791359       4.01719769      13.67959660 
Co       6.92235726       3.99662483      13.68941372 
Co      11.18499491       6.45765982      13.69538388 
Co       5.45742045       6.46772191      13.70804081 
Co       8.35534982       6.43503756      13.68415904 
O      12.36930170       7.14141967      17.86855578 
H       0.63997123       0.36948756      18.24862213 
