47
Lattice="8.33952545343259 0.0 0.0 4.169762726716295 7.22224089817956 0.0 0.0 0.0 23.078925359049936" Properties=species:S:1:pos:R:3 pbc="T T T"
Pt       8.33952545       1.60494242       7.00000000 
Pt       2.77984182       1.60494242       7.00000000 
Pt       5.55968364       1.60494242       7.00000000 
Pt       9.72944636       4.01235605       7.00000000 
Pt       4.16976273       4.01235605       7.00000000 
Pt       6.94960454       4.01235605       7.00000000 
Pt      11.11936727       6.41976969       7.00000000 
Pt       5.55968364       6.41976969       7.00000000 
Pt       8.33952545       6.41976969       7.00000000 
Pt       0.00000000       0.00000000       9.26973134 
Pt       2.77984182       0.00000000       9.26973134 
Pt       5.55968364       0.00000000       9.26973134 
Pt       1.38992091       2.40741363       9.26973134 
Pt       4.16976273       2.40741363       9.26973134 
Pt       6.94960454       2.40741363       9.26973134 
Pt       2.77984182       4.81482727       9.26973134 
Pt       5.55968364       4.81482727       9.26973134 
Pt       8.33952545       4.81482727       9.26973134 
Pt       1.38519905       0.79974504      11.61295725 
Pt       4.16703654       0.80135846      11.59428992 
Pt       6.94969542       0.79954353      11.61115841 
Pt       2.77751505       3.20808027      11.59428992 
Pt       5.55686533       3.20825769      11.59338843 
Pt       8.33724930       3.20282706      11.59981201 
Pt       4.16727271       5.61884102      11.61115841 
Pt       6.94235425       5.61885616      11.59981201 
Pt       9.73232422       5.61896001      11.59880620 
Pt      12.49214526       7.21234343      16.56508407 
Pt       6.95946877       7.21548066      16.40526974 
Pt       9.68838526       7.21296032      16.39430926 
Pt       9.72852394       2.41933642      16.40526974 
Pt       4.15395388       2.39828639      16.40435669 
Pt       6.92082441       2.41866162      16.39627201 
Pt      11.09079951       4.78390760      16.39430926 
Pt       5.55503461       4.78427894      16.39627201 
Pt       8.32420256       4.80598059      16.39433746 
Ag       8.33159137       1.58995192      14.04324142 
Ag       2.77098803       1.59983068      14.00570853 
Ag       5.55145363       1.60011516      14.00161122 
Ag       9.71966668       4.00774274      13.99107359 
Ag       4.16146719       4.00764229      14.00161122 
Ag       6.94287184       4.00846892      13.99053159 
Ag      11.11923640       6.41969413      14.04053492 
Ag       5.54273444       6.42039382      14.04324142 
Ag       8.33064036       6.41360689      13.99107359 
O      12.45738381       7.19227390      18.54347540 
H       0.75746584       0.43732311      18.83690498 
