46
Lattice="8.562378640804901 0.0 0.0 4.281189320402451 7.415237419758317 0.0 0.0 0.0 23.321537179767724" Properties=species:S:1:pos:R:3 pbc="T T T"
Pd       8.56237864       1.64783054       7.00000000 
Pd       2.85412621       1.64783054       7.00000000 
Pd       5.70825243       1.64783054       7.00000000 
Pd       9.98944175       4.11957634       7.00000000 
Pd       4.28118932       4.11957634       7.00000000 
Pd       7.13531553       4.11957634       7.00000000 
Pd      11.41650485       6.59132215       7.00000000 
Pd       5.70825243       6.59132215       7.00000000 
Pd       8.56237864       6.59132215       7.00000000 
Pd       0.00000000       0.00000000       9.33038429 
Pd       2.85412621       0.00000000       9.33038429 
Pd       5.70825243       0.00000000       9.33038429 
Pd       1.42706311       2.47174581       9.33038429 
Pd       4.28118932       2.47174581       9.33038429 
Pd       7.13531553       2.47174581       9.33038429 
Pd       2.85412621       4.94349161       9.33038429 
Pd       5.70825243       4.94349161       9.33038429 
Pd       8.56237864       4.94349161       9.33038429 
Pd       1.42706311       0.82391527      11.66076859 
Pd       4.28118932       0.82391527      11.66076859 
Pd       7.13531553       0.82391527      11.66076859 
Pd       2.85412621       3.29566108      11.66076859 
Pd       5.70825243       3.29566108      11.66076859 
Pd       8.56237864       3.29566108      11.66076859 
Pd       4.28118932       5.76740688      11.66076859 
Pd       7.13531553       5.76740688      11.66076859 
Pd       9.98944175       5.76740688      11.66076859 
Pd      12.79446451       7.38688753      15.74629747 
Pd       7.18441898       7.38688753      15.74629747 
Pd       9.98944175       7.40646196      15.59781452 
Pd       9.98944175       2.52844558      15.74629747 
Pd       4.29981235       2.48249782      15.64758454 
Pd       7.11669250       2.48249782      15.64758454 
Pd      11.40890508       4.94787934      15.59781452 
Pd       5.70825243       4.92198759      15.64758454 
Pd       8.56997841       4.94787934      15.59781452 
Ni       8.57388843       1.64118536      13.66322655 
Ni       2.84261643       1.64118536      13.66322655 
Ni       5.70825243       1.66522946      13.64484400 
Ni       9.98944175       4.05974739      13.64477475 
Ni       4.29625723       4.11087688      13.64484400 
Ni       7.12024763       4.11087688      13.64484400 
Ni      11.46831825       6.62123663      13.64477475 
Ni       5.70825243       6.60461251      13.66322655 
Ni       8.51056525       6.62123663      13.64477475 
S       1.42706311       0.82391527      17.24863122 
