47
Lattice="8.738335799342142 0.0 0.0 4.369167899671071 7.567620789029295 0.0 0.0 0.0 23.51309507088161" Properties=species:S:1:pos:R:3 pbc="T T T"
Ag       8.73833580       1.68169351       7.00000000 
Ag       2.91277860       1.68169351       7.00000000 
Ag       5.82555720       1.68169351       7.00000000 
Ag      10.19472510       4.20423377       7.00000000 
Ag       4.36916790       4.20423377       7.00000000 
Ag       7.28194650       4.20423377       7.00000000 
Ag      11.65111440       6.72677403       7.00000000 
Ag       5.82555720       6.72677403       7.00000000 
Ag       8.73833580       6.72677403       7.00000000 
Ag       0.00000000       0.00000000       9.37827377 
Ag       2.91277860       0.00000000       9.37827377 
Ag       5.82555720       0.00000000       9.37827377 
Ag       1.45638930       2.52254026       9.37827377 
Ag       4.36916790       2.52254026       9.37827377 
Ag       7.28194650       2.52254026       9.37827377 
Ag       2.91277860       5.04508053       9.37827377 
Ag       5.82555720       5.04508053       9.37827377 
Ag       8.73833580       5.04508053       9.37827377 
Ag       1.45638930       0.84084675      11.75654754 
Ag       4.36916790       0.84084675      11.75654754 
Ag       7.28194650       0.84084675      11.75654754 
Ag       2.91277860       3.36338702      11.75654754 
Ag       5.82555720       3.36338702      11.75654754 
Ag       8.73833580       3.36338702      11.75654754 
Ag       4.36916790       5.88592728      11.75654754 
Ag       7.28194650       5.88592728      11.75654754 
Ag      10.19472510       5.88592728      11.75654754 
Ag      13.07284664       7.54761152      16.35828078 
Ag       7.35841280       7.53701867      16.35895050 
Ag      10.21104274       7.54831321      15.74687548 
Ag      10.20645604       2.60406308      16.35895050 
Ag       4.36299146       2.51897430      16.06266188 
Ag       7.30676467       2.51808587      16.05411759 
Ag      11.64255237       5.06886581      15.74687548 
Ag       5.83410867       5.06880089      16.05411759 
Ag       8.76982032       5.06325812      15.73856673 
Co       8.82184492       1.65094419      13.98304057 
Co       2.85224667       1.64674538      13.98327653 
Co       5.82061589       1.91638479      13.90139215 
Co      10.20830215       3.57379520      13.97695952 
Co       4.56994586       4.08260883      13.90139215 
Co       7.07769493       4.08630908      13.90007758 
Co      12.21935980       7.05485067      13.97812627 
Co       5.84068207       6.81446971      13.98304057 
Co       8.19914850       7.05375139      13.97695952 
O       1.48912522       0.85974685      17.84442765 
H       1.51514020       0.87476660      18.81754133 
