46
Lattice="8.436491006336698 0.0 0.0 4.218245503168349 7.306215530286524 0.0 0.0 0.0 23.184488082268565" Properties=species:S:1:pos:R:3 pbc="T T T"
Pt       8.43649101       1.62360345       7.00000000 
Pt       2.81216367       1.62360345       7.00000000 
Pt       5.62432734       1.62360345       7.00000000 
Pt       9.84257284       4.05900863       7.00000000 
Pt       4.21824550       4.05900863       7.00000000 
Pt       7.03040917       4.05900863       7.00000000 
Pt      11.24865468       6.49441380       7.00000000 
Pt       5.62432734       6.49441380       7.00000000 
Pt       8.43649101       6.49441380       7.00000000 
Pt       0.00000000       0.00000000       9.29612202 
Pt       2.81216367       0.00000000       9.29612202 
Pt       5.62432734       0.00000000       9.29612202 
Pt       1.40608183       2.43540518       9.29612202 
Pt       4.21824550       2.43540518       9.29612202 
Pt       7.03040917       2.43540518       9.29612202 
Pt       2.81216367       4.87081035       9.29612202 
Pt       5.62432734       4.87081035       9.29612202 
Pt       8.43649101       4.87081035       9.29612202 
Pt       1.40632009       0.81193928      11.60556811 
Pt       4.21824550       0.81222995      11.59920306 
Pt       7.03017092       0.81193928      11.60556811 
Pt       2.81253452       3.24699279      11.59920306 
Pt       5.62395649       3.24699279      11.59920306 
Pt       8.43649101       3.23735035      11.60796141 
Pt       4.21824550       5.68233697      11.60556811 
Pt       7.02187315       5.68754036      11.60796141 
Pt       9.85110887       5.68754036      11.60796141 
Pt       0.00000000       0.00000000      15.85743869 
Pt       7.05246960       7.30514273      15.75772205 
Pt       9.82051242       7.30514273      15.75772205 
Pt       9.85267398       2.45504647      15.75772205 
Pt       4.21824550       2.43540518      15.77251874 
Pt       7.02030804       2.45504647      15.75772205 
Pt      11.23669539       4.85224187      15.75772205 
Pt       5.63628663       4.85224187      15.75772205 
Pt       8.43649101       4.87081035      15.76486565 
Cu       8.43649101       1.57149221      13.71111206 
Cu       2.81679048       1.62627474      13.68500364 
Cu       5.61970053       1.62627474      13.68500364 
Cu       9.83677598       4.06235545      13.67731853 
Cu       4.21824550       4.05366605      13.68500364 
Cu       7.03620604       4.06235545      13.67731853 
Cu      11.29378433       6.52046942      13.71111206 
Cu       5.57919768       6.52046942      13.71111206 
Cu       8.43649101       6.48772016      13.67731853 
F       0.00000000       0.00000000      17.85213232 
