46
Lattice="8.65006978116697 0.0 0.0 4.325034890583485 7.491180174998695 0.0 0.0 0.0 23.417003201478764" Properties=species:S:1:pos:R:3 pbc="T T T"
Ag       8.65006978       1.66470671       7.00000000 
Ag       2.88335659       1.66470671       7.00000000 
Ag       5.76671319       1.66470671       7.00000000 
Ag      10.09174808       4.16176676       7.00000000 
Ag       4.32503489       4.16176676       7.00000000 
Ag       7.20839148       4.16176676       7.00000000 
Ag      11.53342637       6.65882682       7.00000000 
Ag       5.76671319       6.65882682       7.00000000 
Ag       8.65006978       6.65882682       7.00000000 
Ag       0.00000000       0.00000000       9.35425080 
Ag       2.88335659       0.00000000       9.35425080 
Ag       5.76671319       0.00000000       9.35425080 
Ag       1.44167830       2.49706006       9.35425080 
Ag       4.32503489       2.49706006       9.35425080 
Ag       7.20839148       2.49706006       9.35425080 
Ag       2.88335659       4.99412012       9.35425080 
Ag       5.76671319       4.99412012       9.35425080 
Ag       8.65006978       4.99412012       9.35425080 
Ag       1.44167830       0.83235335      11.70850160 
Ag       4.32503489       0.83235335      11.70850160 
Ag       7.20839148       0.83235335      11.70850160 
Ag       2.88335659       3.32941341      11.70850160 
Ag       5.76671319       3.32941341      11.70850160 
Ag       8.65006978       3.32941341      11.70850160 
Ag       4.32503489       5.82647347      11.70850160 
Ag       7.20839148       5.82647347      11.70850160 
Ag      10.09174808       5.82647347      11.70850160 
Ag      12.92021256       7.45948820      16.41402988 
Ag       7.26328360       7.45948820      16.41402988 
Ag      10.09174808       7.48984996      16.41324191 
Ag      10.09174808       2.56044401      16.41402988 
Ag       4.33785259       2.50446036      16.38666141 
Ag       7.19557378       2.50446036      16.38666141 
Ag      11.53227438       4.99478522      16.41324191 
Ag       5.76671319       4.97931951      16.38666141 
Ag       8.65122178       4.99478522      16.41324191 
Pt       8.65932174       1.65936508      14.04271974 
Pt       2.87410464       1.65936508      14.04271974 
Pt       5.76671319       1.65816070      14.05633088 
Pt      10.09174808       4.15786632      14.07526497 
Pt       4.31936588       4.16503977      14.05633088 
Pt       7.21406049       4.16503977      14.05633088 
Pt      11.53680426       6.66077705      14.07526497 
Pt       5.76671319       6.66951006      14.04271974 
Pt       8.64669190       6.66077705      14.07526497 
S       1.44167830       0.83235335      18.13262966 
