46
Lattice="8.508000715118095 0.0 0.0 4.254000357559048 7.36814475470844 0.0 0.0 0.0 23.262337992566096" Properties=species:S:1:pos:R:3 pbc="T T T"
Pt       8.50800072       1.63736550       7.00000000 
Pt       2.83600024       1.63736550       7.00000000 
Pt       5.67200048       1.63736550       7.00000000 
Pt       9.92600083       4.09341375       7.00000000 
Pt       4.25400036       4.09341375       7.00000000 
Pt       7.09000060       4.09341375       7.00000000 
Pt      11.34400095       6.54946200       7.00000000 
Pt       5.67200048       6.54946200       7.00000000 
Pt       8.50800072       6.54946200       7.00000000 
Pt       0.00000000       0.00000000       9.31558450 
Pt       2.83600024       0.00000000       9.31558450 
Pt       5.67200048       0.00000000       9.31558450 
Pt       1.41800012       2.45604825       9.31558450 
Pt       4.25400036       2.45604825       9.31558450 
Pt       7.09000060       2.45604825       9.31558450 
Pt       2.83600024       4.91209650       9.31558450 
Pt       5.67200048       4.91209650       9.31558450 
Pt       8.50800072       4.91209650       9.31558450 
Pt       1.41800012       0.81868275      11.57846461 
Pt       4.25264464       0.81513292      11.57214766 
Pt       7.09135632       0.81513292      11.57214766 
Pt       2.83224813       3.27533183      11.57214766 
Pt       5.67200048       3.27473100      11.56478040 
Pt       8.51175282       3.27533183      11.57214766 
Pt       4.25160397       5.73372826      11.57214766 
Pt       7.09239698       5.73372826      11.57214766 
Pt       9.92600083       5.73077925      11.55312835 
Pt      12.65906489       7.30871452      16.13738904 
Pt       7.19293678       7.30871452      16.13738904 
Pt       9.92600083       7.36623089      16.06837764 
Pt       9.92600083       2.57490872      16.13738904 
Pt       4.29409522       2.47919703      16.05086024 
Pt       7.04990573       2.47919703      16.05086024 
Pt      11.34234350       4.91305343      16.06837764 
Pt       5.67200048       4.86579894      16.05086024 
Pt       8.50965817       4.91305343      16.06837764 
Pd       8.51338119       1.63425908      13.81352324 
Pd       2.83061977       1.63425908      13.81352324 
Pd       5.67200048       1.63260592      13.78541700 
Pd       9.92600083       4.08505133      13.81384013 
Pd       4.24987844       4.09579354      13.78541700 
Pd       7.09412252       4.09579354      13.78541700 
Pd      11.35124302       6.55364321      13.81384013 
Pd       5.67200048       6.55567484      13.81352324 
Pd       8.50075865       6.55364321      13.81384013 
S       1.41800012       0.81868275      17.56043170 
