47
Lattice="8.592238345960848 0.0 0.0 4.296119172980424 7.44109668297288 0.0 0.0 0.0 23.354044309324177" Properties=species:S:1:pos:R:3 pbc="T T T"
Pt       8.59223835       1.65357704       7.00000000 
Pt       2.86407945       1.65357704       7.00000000 
Pt       5.72815890       1.65357704       7.00000000 
Pt      10.02427807       4.13394260       7.00000000 
Pt       4.29611917       4.13394260       7.00000000 
Pt       7.16019862       4.13394260       7.00000000 
Pt      11.45631779       6.61430816       7.00000000 
Pt       5.72815890       6.61430816       7.00000000 
Pt       8.59223835       6.61430816       7.00000000 
Pt       0.00000000       0.00000000       9.33851108 
Pt       2.86407945       0.00000000       9.33851108 
Pt       5.72815890       0.00000000       9.33851108 
Pt       1.43203972       2.48036556       9.33851108 
Pt       4.29611917       2.48036556       9.33851108 
Pt       7.16019862       2.48036556       9.33851108 
Pt       2.86407945       4.96073112       9.33851108 
Pt       5.72815890       4.96073112       9.33851108 
Pt       8.59223835       4.96073112       9.33851108 
Pt       1.42965414       0.82541120      11.59349061 
Pt       4.29266844       0.82275263      11.58994385 
Pt       7.15445159       0.82565644      11.58998940 
Pt       2.85885890       3.30618361      11.58994385 
Pt       5.72582087       3.30580422      11.58980278 
Pt       8.58831687       3.29155515      11.60917029 
Pt       4.29226525       5.78310861      11.58998940 
Pt       7.14472881       5.79192301      11.60917029 
Pt      10.02848528       5.78994868      11.60170077 
Pt       0.01223536       0.00706409      15.68861778 
Pt       7.17843716       7.43448857      15.55986265 
Pt       9.99490194       7.43247006      15.55701717 
Pt      10.02767455       2.49946466      15.55986265 
Pt       4.29206872       2.47802703      15.56981069 
Pt       7.14679693       2.50046287      15.56306905 
Pt      11.43415885       4.93960396      15.55701717 
Pt       5.73886283       4.93907626      15.56306905 
Pt       8.58766945       4.95809327      15.56792198 
Ni       8.58154489       1.55187088      13.61390675 
Ni       2.86246290       1.65264373      13.56830040 
Ni       5.72322629       1.65139289      13.56812396 
Ni      10.02099591       4.13583001      13.56616839 
Ni       4.29176134       4.13076291      13.56812396 
Ni       7.15135045       4.12883411      13.56947754 
Ni      11.52174702       6.65208374      13.60136282 
Ni       5.63473205       6.65590044      13.61390675 
Ni       8.59223181       6.61052203      13.56616839 
O      12.76301310       7.36872905      17.68626927 
H       0.65905821       0.38050743      18.05655468 
