47
Lattice="8.67356128265155 0.0 0.0 4.336780641325775 7.511524412057382 0.0 0.0 0.0 23.442577509002792" Properties=species:S:1:pos:R:3 pbc="T T T"
Au       8.67356128       1.66922765       7.00000000 
Au       2.89118709       1.66922765       7.00000000 
Au       5.78237419       1.66922765       7.00000000 
Au      10.11915483       4.17306912       7.00000000 
Au       4.33678064       4.17306912       7.00000000 
Au       7.22796774       4.17306912       7.00000000 
Au      11.56474838       6.67691059       7.00000000 
Au       5.78237419       6.67691059       7.00000000 
Au       8.67356128       6.67691059       7.00000000 
Au       0.00000000       0.00000000       9.36064438 
Au       2.89118709       0.00000000       9.36064438 
Au       5.78237419       0.00000000       9.36064438 
Au       1.44559355       2.50384147       9.36064438 
Au       4.33678064       2.50384147       9.36064438 
Au       7.22796774       2.50384147       9.36064438 
Au       2.89118709       5.00768294       9.36064438 
Au       5.78237419       5.00768294       9.36064438 
Au       8.67356128       5.00768294       9.36064438 
Au       1.44559355       0.83461382      11.72128875 
Au       4.33678064       0.83461382      11.72128875 
Au       7.22796774       0.83461382      11.72128875 
Au       2.89118709       3.33845529      11.72128875 
Au       5.78237419       3.33845529      11.72128875 
Au       8.67356128       3.33845529      11.72128875 
Au       4.33678064       5.84229676      11.72128875 
Au       7.22796774       5.84229676      11.72128875 
Au      10.11915483       5.84229676      11.72128875 
Au       4.30832725       7.41039597      16.43679657 
Au       7.28312049       7.40744731      16.43161313 
Au      10.13139997       7.47085620      16.20895606 
Au       1.45508202       2.51779059      16.09474631 
Au       4.34451626       2.44782164      16.38954232 
Au       7.24072321       2.44928981      16.39000441 
Au       2.89216938       4.92652999      16.45576268 
Au       5.79174634       4.90204239      16.11840387 
Au       8.69650489       4.92648903      16.45493398 
Ir       8.55665372       1.55772161      14.02397224 
Ir       3.02072803       1.55917422      14.02305524 
Ir       5.78993408       1.79385688      14.02274306 
Ir      10.12614627       4.37578981      14.00763089 
Ir       4.18696794       4.07626578      14.02016822 
Ir       7.39103781       4.07668051      14.02139293 
Ir      11.74503628       6.58305955      14.10832964 
Ir       5.78906441       6.81138031      14.01576593 
Ir       8.50685333       6.58317453      14.10586266 
O       1.46710646       0.00177386      18.11551234 
H       1.47303689       0.91187651      18.47438521 
