46
Lattice="8.141275339404878 0.0 0.0 4.070637669702439 7.0505512631284 0.0 0.0 0.0 22.863097972020395" Properties=species:S:1:pos:R:3 pbc="T T T"
Ir       8.14127534       1.56678917       7.00000000 
Ir       2.71375845       1.56678917       7.00000000 
Ir       5.42751689       1.56678917       7.00000000 
Ir       9.49815456       3.91697292       7.00000000 
Ir       4.07063767       3.91697292       7.00000000 
Ir       6.78439612       3.91697292       7.00000000 
Ir      10.85503379       6.26715668       7.00000000 
Ir       5.42751689       6.26715668       7.00000000 
Ir       8.14127534       6.26715668       7.00000000 
Ir       0.00000000       0.00000000       9.21577449 
Ir       2.71375845       0.00000000       9.21577449 
Ir       5.42751689       0.00000000       9.21577449 
Ir       1.35687922       2.35018375       9.21577449 
Ir       4.07063767       2.35018375       9.21577449 
Ir       6.78439612       2.35018375       9.21577449 
Ir       2.71375845       4.70036751       9.21577449 
Ir       5.42751689       4.70036751       9.21577449 
Ir       8.14127534       4.70036751       9.21577449 
Ir       1.35687922       0.78339458      11.43154899 
Ir       4.07063767       0.78339458      11.43154899 
Ir       6.78439612       0.78339458      11.43154899 
Ir       2.71375845       3.13357834      11.43154899 
Ir       5.42751689       3.13357834      11.43154899 
Ir       8.14127534       3.13357834      11.43154899 
Ir       4.07063767       5.48376209      11.43154899 
Ir       6.78439612       5.48376209      11.43154899 
Ir       9.49815456       5.48376209      11.43154899 
Ir      12.11223863       6.99300423      16.44512602 
Ir       6.88407050       6.99300423      16.44512602 
Ir       5.42751689       0.02639000      16.26826947 
Ir       9.49815456       2.46527781      16.44512602 
Ir       4.10287234       2.36879445      16.27020264 
Ir       6.75216145       2.36879445      16.27020264 
Ir       2.73661285       4.68717251      16.26826947 
Ir       5.42751689       4.66314612      16.27020264 
Ir       8.11842093       4.68717251      16.26826947 
Ag       8.15016881       1.56165452      13.94432183 
Ag       2.70486497       1.56165452      13.94432183 
Ag       5.42751689       1.56504690      13.84978824 
Ag       9.49815456       3.91471520      13.87446078 
Ag       4.06912882       3.91784406      13.84978824 
Ag       6.78590497       3.91784406      13.84978824 
Ag      10.85698903       6.26828554      13.87446078 
Ag       5.42751689       6.27742597      13.94432183 
Ag       8.13932009       6.26828554      13.87446078 
S       1.35687922       0.78339458      17.94696709 
