46
Lattice="8.423763084275341 0.0 0.0 4.211881542137671 7.295192826444 0.0 0.0 0.0 23.170631675808018" Properties=species:S:1:pos:R:3 pbc="T T T"
Pt       8.42376308       1.62115396       7.00000000 
Pt       2.80792103       1.62115396       7.00000000 
Pt       5.61584206       1.62115396       7.00000000 
Pt       9.82772360       4.05288490       7.00000000 
Pt       4.21188154       4.05288490       7.00000000 
Pt       7.01980257       4.05288490       7.00000000 
Pt      11.23168411       6.48461585       7.00000000 
Pt       5.61584206       6.48461585       7.00000000 
Pt       8.42376308       6.48461585       7.00000000 
Pt       0.00000000       0.00000000       9.29265792 
Pt       2.80792103       0.00000000       9.29265792 
Pt       5.61584206       0.00000000       9.29265792 
Pt       1.40396051       2.43173094       9.29265792 
Pt       4.21188154       2.43173094       9.29265792 
Pt       7.01980257       2.43173094       9.29265792 
Pt       2.80792103       4.86346188       9.29265792 
Pt       5.61584206       4.86346188       9.29265792 
Pt       8.42376308       4.86346188       9.29265792 
Pt       1.40396051       0.81057698      11.64658600 
Pt       4.21476179       0.80925009      11.65417825 
Pt       7.01692232       0.80925009      11.65417825 
Pt       2.80821203       3.24546574      11.65417825 
Pt       5.61584206       3.24230792      11.66019310 
Pt       8.42347208       3.24546574      11.65417825 
Pt       4.20929230       5.67220794      11.65417825 
Pt       7.02239182       5.67220794      11.65417825 
Pt       9.82772360       5.67403887      11.64873893 
Pt       0.02569255       0.01483360      16.06411131 
Pt       2.78222847       0.01483360      16.06411131 
Pt       9.82772360       7.29142912      16.07219118 
Pt       1.40396051       2.40206374      16.06411131 
Pt       4.22664457       2.44025438      16.06327816 
Pt       7.00503954       2.44025438      16.06327816 
Pt      11.22842465       4.86534374      16.07219118 
Pt       5.61584206       4.84641501      16.06327816 
Pt       8.42702255       4.86534374      16.07219118 
W       8.42747072       1.61901336      13.84113093 
W       2.80421339       1.61901336      13.84113093 
W       5.61584206       1.61847381      13.86532303 
W       9.82772360       4.04076507      13.86877184 
W       4.20956046       4.05422498      13.86532303 
W       7.02212365       4.05422498      13.86532303 
W      11.24218020       6.49067576      13.86877184 
W       5.61584206       6.48889706      13.84113093 
W       8.41326700       6.49067576      13.86877184 
O       1.40396051       0.81057698      17.57368941 
