47
Lattice="8.562378640804901 0.0 0.0 4.281189320402451 7.415237419758317 0.0 0.0 0.0 23.321537179767724" Properties=species:S:1:pos:R:3 pbc="T T T"
Pd       8.56237864       1.64783054       7.00000000 
Pd       2.85412621       1.64783054       7.00000000 
Pd       5.70825243       1.64783054       7.00000000 
Pd       9.98944175       4.11957634       7.00000000 
Pd       4.28118932       4.11957634       7.00000000 
Pd       7.13531553       4.11957634       7.00000000 
Pd      11.41650485       6.59132215       7.00000000 
Pd       5.70825243       6.59132215       7.00000000 
Pd       8.56237864       6.59132215       7.00000000 
Pd       0.00000000       0.00000000       9.33038429 
Pd       2.85412621       0.00000000       9.33038429 
Pd       5.70825243       0.00000000       9.33038429 
Pd       1.42706311       2.47174581       9.33038429 
Pd       4.28118932       2.47174581       9.33038429 
Pd       7.13531553       2.47174581       9.33038429 
Pd       2.85412621       4.94349161       9.33038429 
Pd       5.70825243       4.94349161       9.33038429 
Pd       8.56237864       4.94349161       9.33038429 
Pd       1.42706311       0.82391527      11.66076859 
Pd       4.28118932       0.82391527      11.66076859 
Pd       7.13531553       0.82391527      11.66076859 
Pd       2.85412621       3.29566108      11.66076859 
Pd       5.70825243       3.29566108      11.66076859 
Pd       8.56237864       3.29566108      11.66076859 
Pd       4.28118932       5.76740688      11.66076859 
Pd       7.13531553       5.76740688      11.66076859 
Pd       9.98944175       5.76740688      11.66076859 
Pd       4.29975510       7.40250434      15.75731532 
Pd       7.12378168       7.40276051      15.75398481 
Pd       9.99314465       7.41396913      15.72394018 
Pd       9.99268285       2.49211198      15.66080677 
Pd       4.28784196       2.46652692      15.71771614 
Pd       7.13523902       2.46702174      15.71971351 
Pd       2.85097231       4.93973123      15.70131190 
Pd       5.71144243       4.90513949      15.66485896 
Pd       8.57116279       4.93925521      15.69918888 
Fe       8.51553289       1.60182879      13.70436915 
Fe       2.90360716       1.60381575      13.70339701 
Fe       5.71171327       1.63684878      13.70554168 
Fe       9.99361378       4.15454444      13.68565284 
Fe       4.25816375       4.09290049      13.68986517 
Fe       7.16073427       4.09115114      13.68937370 
Fe      11.42400651       6.62901363      13.71109285 
Fe       5.70789088       6.61745240      13.68624902 
Fe       8.56054297       6.62994508      13.70941239 
O       5.71569702       7.25985133      17.44482845 
H       1.44022728       0.63582295      18.01660068 
