46
Lattice="8.255287822589835 0.0 0.0 4.127643911294918 7.149288969915119 0.0 0.0 0.0 22.987219042291855" Properties=species:S:1:pos:R:3 pbc="T T T"
Pt       8.25528782       1.58873088       7.00000000 
Pt       2.75176261       1.58873088       7.00000000 
Pt       5.50352522       1.58873088       7.00000000 
Pt       9.63116913       3.97182721       7.00000000 
Pt       4.12764391       3.97182721       7.00000000 
Pt       6.87940652       3.97182721       7.00000000 
Pt      11.00705043       6.35492353       7.00000000 
Pt       5.50352522       6.35492353       7.00000000 
Pt       8.25528782       6.35492353       7.00000000 
Pt       0.00000000       0.00000000       9.24680476 
Pt       2.75176261       0.00000000       9.24680476 
Pt       5.50352522       0.00000000       9.24680476 
Pt       1.37588130       2.38309632       9.24680476 
Pt       4.12764391       2.38309632       9.24680476 
Pt       6.87940652       2.38309632       9.24680476 
Pt       2.75176261       4.76619265       9.24680476 
Pt       5.50352522       4.76619265       9.24680476 
Pt       8.25528782       4.76619265       9.24680476 
Pt       1.37588130       0.79436544      11.66211694 
Pt       4.12216140       0.79533824      11.61394907 
Pt       6.88488903       0.79533824      11.61394907 
Pt       2.74986382       3.17222737      11.61394907 
Pt       5.50352522       3.17746176      11.60009625 
Pt       8.25718661       3.17222737      11.61394907 
Pt       4.13122763       5.56481968      11.61394907 
Pt       6.87582280       5.56481968      11.61394907 
Pt       9.63116913       5.56055809      11.60397469 
Pt      12.27954323       7.08959759      16.59818857 
Pt       6.98279502       7.08959759      16.59818857 
Pt       5.50352522       0.00183675      16.43834630 
Pt       9.63116913       2.50247908      16.59818857 
Pt       4.16515698       2.40475451      16.47043638 
Pt       6.84189345       2.40475451      16.47043638 
Pt       2.75335328       4.76527427      16.43834630 
Pt       5.50352522       4.72287628      16.47043638 
Pt       8.25369715       4.76527427      16.43834630 
Ag       8.25813488       1.58708713      14.10620996 
Ag       2.74891555       1.58708713      14.10620996 
Ag       5.50352522       1.58950557      14.02439587 
Ag       9.63116913       3.96756921      14.03078645 
Ag       4.12831481       3.97143986      14.02439587 
Ag       6.87873562       3.97143986      14.02439587 
Ag      11.01073796       6.35705253      14.03078645 
Ag       5.50352522       6.35821103      14.10620996 
Ag       8.25160029       6.35705253      14.03078645 
S       1.37588130       0.79436544      18.05762945 
