47
Lattice="8.423763084275341 0.0 0.0 4.211881542137671 7.295192826444 0.0 0.0 0.0 23.170631675808018" Properties=species:S:1:pos:R:3 pbc="T T T"
Pt       8.42376308       1.62115396       7.00000000 
Pt       2.80792103       1.62115396       7.00000000 
Pt       5.61584206       1.62115396       7.00000000 
Pt       9.82772360       4.05288490       7.00000000 
Pt       4.21188154       4.05288490       7.00000000 
Pt       7.01980257       4.05288490       7.00000000 
Pt      11.23168411       6.48461585       7.00000000 
Pt       5.61584206       6.48461585       7.00000000 
Pt       8.42376308       6.48461585       7.00000000 
Pt       0.00000000       0.00000000       9.29265792 
Pt       2.80792103       0.00000000       9.29265792 
Pt       5.61584206       0.00000000       9.29265792 
Pt       1.40396051       2.43173094       9.29265792 
Pt       4.21188154       2.43173094       9.29265792 
Pt       7.01980257       2.43173094       9.29265792 
Pt       2.80792103       4.86346188       9.29265792 
Pt       5.61584206       4.86346188       9.29265792 
Pt       8.42376308       4.86346188       9.29265792 
Pt       1.40407196       0.81064133      11.62363014 
Pt       4.20948879       0.80826312      11.61500863 
Pt       7.01506764       0.81094585      11.61463761 
Pt       2.80472079       3.24139267      11.61500863 
Pt       5.61439313       3.24147139      11.61528352 
Pt       8.42127927       3.23580461      11.65743364 
Pt       4.20983352       5.66975386      11.61463761 
Pt       7.01292863       5.67513948      11.65743364 
Pt       9.82628980       5.67321106      11.63579696 
Pt       0.00045913       0.00026508      15.81921221 
Pt       7.03091832       7.28889056      15.69805146 
Pt       9.80465750       7.28947682      15.70570775 
Pt       9.82782355       2.44450860      15.69805146 
Pt       4.20669518       2.42873659      15.71464494 
Pt       7.01058540       2.44222151      15.70808430 
Pt      11.21520086       4.84634405      15.70570775 
Pt       5.62031857       4.85023430      15.70808430 
Pt       8.41624668       4.85912229      15.69098607 
Co       8.40757980       1.48606584      13.69610891 
Co       2.81645735       1.62608241      13.66217856 
Co       5.61306557       1.61933031      13.66562672 
Co       9.86086536       4.05938370      13.66697879 
Co       4.20891397       4.05139222      13.66562672 
Co       6.97431427       4.02662222      13.67153266 
Co      11.30725576       6.52824716      13.68294766 
Co       5.49076067       6.53814477      13.69610891 
Co       8.44596209       6.51006805      13.66697879 
O      12.50006243       7.21691441      17.84109983 
H       0.64621469       0.37309223      18.21626693 
