46
Lattice="8.738335799342142 0.0 0.0 4.369167899671071 7.567620789029295 0.0 0.0 0.0 23.51309507088161" Properties=species:S:1:pos:R:3 pbc="T T T"
Ag       8.73833580       1.68169351       7.00000000 
Ag       2.91277860       1.68169351       7.00000000 
Ag       5.82555720       1.68169351       7.00000000 
Ag      10.19472510       4.20423377       7.00000000 
Ag       4.36916790       4.20423377       7.00000000 
Ag       7.28194650       4.20423377       7.00000000 
Ag      11.65111440       6.72677403       7.00000000 
Ag       5.82555720       6.72677403       7.00000000 
Ag       8.73833580       6.72677403       7.00000000 
Ag       0.00000000       0.00000000       9.37827377 
Ag       2.91277860       0.00000000       9.37827377 
Ag       5.82555720       0.00000000       9.37827377 
Ag       1.45638930       2.52254026       9.37827377 
Ag       4.36916790       2.52254026       9.37827377 
Ag       7.28194650       2.52254026       9.37827377 
Ag       2.91277860       5.04508053       9.37827377 
Ag       5.82555720       5.04508053       9.37827377 
Ag       8.73833580       5.04508053       9.37827377 
Ag       1.45638930       0.84084675      11.75654754 
Ag       4.36916790       0.84084675      11.75654754 
Ag       7.28194650       0.84084675      11.75654754 
Ag       2.91277860       3.36338702      11.75654754 
Ag       5.82555720       3.36338702      11.75654754 
Ag       8.73833580       3.36338702      11.75654754 
Ag       4.36916790       5.88592728      11.75654754 
Ag       7.28194650       5.88592728      11.75654754 
Ag      10.19472510       5.88592728      11.75654754 
Ag      13.04366004       7.53076064      16.12151138 
Ag       7.34579016       7.53076064      16.12151138 
Ag      10.19472510       7.55345042      15.95371002 
Ag      10.19472510       2.59626057      16.12151138 
Ag       4.38055882       2.52911681      15.96756266 
Ag       7.27055558       2.52911681      15.96756266 
Ag      11.63884250       5.05216571      15.95371002 
Ag       5.82555720       5.03192742      15.96756266 
Ag       8.75060770       5.05216571      15.95371002 
Cu       8.79411433       1.64948976      13.90600657 
Cu       2.85700007       1.64948976      13.90600657 
Cu       5.82555720       1.66875540      13.87506090 
Cu      10.19472510       4.04680737      13.90768429 
Cu       4.35796317       4.21070282      13.87506090 
Cu       7.29315123       4.21070282      13.87506090 
Cu      11.78744966       6.80548724      13.90768429 
Cu       5.82555720       6.79118153      13.90600657 
Cu       8.60200054       6.80548724      13.90768429 
O       1.45638930       0.84084675      17.35576834 
