46
Lattice="8.255287822589835 0.0 0.0 4.127643911294918 7.149288969915119 0.0 0.0 0.0 22.987219042291855" Properties=species:S:1:pos:R:3 pbc="T T T"
Pt       8.25528782       1.58873088       7.00000000 
Pt       2.75176261       1.58873088       7.00000000 
Pt       5.50352522       1.58873088       7.00000000 
Pt       9.63116913       3.97182721       7.00000000 
Pt       4.12764391       3.97182721       7.00000000 
Pt       6.87940652       3.97182721       7.00000000 
Pt      11.00705043       6.35492353       7.00000000 
Pt       5.50352522       6.35492353       7.00000000 
Pt       8.25528782       6.35492353       7.00000000 
Pt       0.00000000       0.00000000       9.24680476 
Pt       2.75176261       0.00000000       9.24680476 
Pt       5.50352522       0.00000000       9.24680476 
Pt       1.37588130       2.38309632       9.24680476 
Pt       4.12764391       2.38309632       9.24680476 
Pt       6.87940652       2.38309632       9.24680476 
Pt       2.75176261       4.76619265       9.24680476 
Pt       5.50352522       4.76619265       9.24680476 
Pt       8.25528782       4.76619265       9.24680476 
Pt       1.37588130       0.79436544      11.56829965 
Pt       4.12993891       0.78842700      11.57860463 
Pt       6.87711152       0.78842700      11.57860463 
Pt       2.74776726       3.18241851      11.57860463 
Pt       5.50352522       3.17746176      11.57322083 
Pt       8.25928317       3.18241851      11.57860463 
Pt       4.12135357       5.56153979      11.57860463 
Pt       6.88569686       5.56153979      11.57860463 
Pt       9.63116913       5.56055809      11.62268221 
Pt      12.34233647       7.12585128      16.09972604 
Pt       6.92000179       7.12585128      16.09972604 
Pt       5.50352522       0.00221735      16.10887754 
Pt       9.63116913       2.42997170      16.09972604 
Pt       4.14244863       2.39164383      16.06456693 
Pt       6.86460180       2.39164383      16.06456693 
Pt       2.75368289       4.76508397      16.10887754 
Pt       5.50352522       4.74909763      16.06456693 
Pt       8.25336754       4.76508397      16.10887754 
Ir       8.25660247       1.58797187      13.79426728 
Ir       2.75044796       1.58797187      13.79426728 
Ir       5.50352522       1.58383174      13.79937208 
Ir       9.63116913       3.94394664      13.86242263 
Ir       4.12340113       3.97427678      13.79937208 
Ir       6.88364930       3.97427678      13.79937208 
Ir      11.03119571       6.36886381      13.86242263 
Ir       5.50352522       6.35644156      13.79426728 
Ir       8.23114254       6.36886381      13.86242263 
Cl       1.37588130       0.79436544      18.07930182 
