46
Lattice="8.223510443843312 0.0 0.0 4.111755221921656 7.121768952654951 0.0 0.0 0.0 22.952624214162014" Properties=species:S:1:pos:R:3 pbc="T T T"
Ir       8.22351044       1.58261532       7.00000000 
Ir       2.74117015       1.58261532       7.00000000 
Ir       5.48234030       1.58261532       7.00000000 
Ir       9.59409552       3.95653831       7.00000000 
Ir       4.11175522       3.95653831       7.00000000 
Ir       6.85292537       3.95653831       7.00000000 
Ir      10.96468059       6.33046129       7.00000000 
Ir       5.48234030       6.33046129       7.00000000 
Ir       8.22351044       6.33046129       7.00000000 
Ir       0.00000000       0.00000000       9.23815605 
Ir       2.74117015       0.00000000       9.23815605 
Ir       5.48234030       0.00000000       9.23815605 
Ir       1.37058507       2.37392298       9.23815605 
Ir       4.11175522       2.37392298       9.23815605 
Ir       6.85292537       2.37392298       9.23815605 
Ir       2.74117015       4.74784597       9.23815605 
Ir       5.48234030       4.74784597       9.23815605 
Ir       8.22351044       4.74784597       9.23815605 
Ir       1.37058507       0.79130766      11.47631211 
Ir       4.11175522       0.79130766      11.47631211 
Ir       6.85292537       0.79130766      11.47631211 
Ir       2.74117015       3.16523065      11.47631211 
Ir       5.48234030       3.16523065      11.47631211 
Ir       8.22351044       3.16523065      11.47631211 
Ir       4.11175522       5.53915363      11.47631211 
Ir       6.85292537       5.53915363      11.47631211 
Ir       9.59409552       5.53915363      11.47631211 
Ir      12.28279136       7.09147290      15.95566990 
Ir       6.90539967       7.09147290      15.95566990 
Ir       9.59409552       7.11968429      15.84393662 
Ir       9.59409552       2.43451509      15.95566990 
Ir       4.14636123       2.39390277      15.85622884 
Ir       6.81831936       2.39390277      15.85622884 
Ir      10.96287522       4.74888830      15.84393662 
Ir       5.48234030       4.70788639      15.85622884 
Ir       8.22531582       4.74888830      15.84393662 
Rh       8.23244189       1.57745875      13.69777160 
Rh       2.73223870       1.57745875      13.69777160 
Rh       5.48234030       1.57744978      13.68789120 
Rh       9.59409552       3.95457809      13.68492563 
Rh       4.10728173       3.95912108      13.68789120 
Rh       6.85739886       3.95912108      13.68789120 
Rh      10.96637819       6.33144140      13.68492563 
Rh       5.48234030       6.34077444      13.69777160 
Rh       8.22181285       6.33144140      13.68492563 
S       1.37058507       0.79130766      17.55857708 
