46
Lattice="9.003133853867665 0.0 0.0 4.501566926933832 7.796942631121092 0.0 0.0 0.0 23.801370679090148" Properties=species:S:1:pos:R:3 pbc="T T T"
Ag       9.00313385       1.73265392       7.00000000 
Ag       3.00104462       1.73265392       7.00000000 
Ag       6.00208924       1.73265392       7.00000000 
Ag      10.50365616       4.33163480       7.00000000 
Ag       4.50156693       4.33163480       7.00000000 
Ag       7.50261154       4.33163480       7.00000000 
Ag      12.00417847       6.93061567       7.00000000 
Ag       6.00208924       6.93061567       7.00000000 
Ag       9.00313385       6.93061567       7.00000000 
Ag       0.00000000       0.00000000       9.45034267 
Ag       3.00104462       0.00000000       9.45034267 
Ag       6.00208924       0.00000000       9.45034267 
Ag       1.50052231       2.59898088       9.45034267 
Ag       4.50156693       2.59898088       9.45034267 
Ag       7.50261154       2.59898088       9.45034267 
Ag       3.00104462       5.19796175       9.45034267 
Ag       6.00208924       5.19796175       9.45034267 
Ag       9.00313385       5.19796175       9.45034267 
Ag       1.50052231       0.86632696      11.90068534 
Ag       4.50156693       0.86632696      11.90068534 
Ag       7.50261154       0.86632696      11.90068534 
Ag       3.00104462       3.46530784      11.90068534 
Ag       6.00208924       3.46530784      11.90068534 
Ag       9.00313385       3.46530784      11.90068534 
Ag       4.50156693       6.06428871      11.90068534 
Ag       7.50261154       6.06428871      11.90068534 
Ag      10.50365616       6.06428871      11.90068534 
Ag       9.01482847       1.72590203      14.26507435 
Ag       2.98935000       1.72590203      14.26507435 
Ag       6.00208924       1.72855966      14.23565596 
Ag      10.50365616       4.30544114      14.24086367 
Ag       4.49802120       4.33368192      14.23565596 
Ag       7.50615727       4.33368192      14.23565596 
Ag      12.02686285       6.94371250      14.24086367 
Ag       6.00208924       6.94411945      14.26507435 
Ag       8.98044948       6.94371250      14.24086367 
Ag      13.39237669       7.73209229      16.65297286 
Ag       7.61493563       7.73209229      16.65297286 
Ag      10.50365616       7.78792406      16.54214617 
Ag      10.50365616       2.72868156      16.65297286 
Ag       4.53076438       2.61583803      16.56048700 
Ag       7.47341409       2.61583803      16.56048700 
Ag      11.99636816       5.20247104      16.54214617 
Ag       6.00208924       5.16424744      16.56048700 
Ag       9.01094417       5.20247104      16.54214617 
S       1.50052231       0.86632696      18.22937778 
