46
Lattice="9.003133853867665 0.0 0.0 4.501566926933832 7.796942631121092 0.0 0.0 0.0 23.801370679090148" Properties=species:S:1:pos:R:3 pbc="T T T"
Ag       9.00313385       1.73265392       7.00000000 
Ag       3.00104462       1.73265392       7.00000000 
Ag       6.00208924       1.73265392       7.00000000 
Ag      10.50365616       4.33163480       7.00000000 
Ag       4.50156693       4.33163480       7.00000000 
Ag       7.50261154       4.33163480       7.00000000 
Ag      12.00417847       6.93061567       7.00000000 
Ag       6.00208924       6.93061567       7.00000000 
Ag       9.00313385       6.93061567       7.00000000 
Ag       0.00000000       0.00000000       9.45034267 
Ag       3.00104462       0.00000000       9.45034267 
Ag       6.00208924       0.00000000       9.45034267 
Ag       1.50052231       2.59898088       9.45034267 
Ag       4.50156693       2.59898088       9.45034267 
Ag       7.50261154       2.59898088       9.45034267 
Ag       3.00104462       5.19796175       9.45034267 
Ag       6.00208924       5.19796175       9.45034267 
Ag       9.00313385       5.19796175       9.45034267 
Ag       1.50052231       0.86632696      11.90068534 
Ag       4.50156693       0.86632696      11.90068534 
Ag       7.50261154       0.86632696      11.90068534 
Ag       3.00104462       3.46530784      11.90068534 
Ag       6.00208924       3.46530784      11.90068534 
Ag       9.00313385       3.46530784      11.90068534 
Ag       4.50156693       6.06428871      11.90068534 
Ag       7.50261154       6.06428871      11.90068534 
Ag      10.50365616       6.06428871      11.90068534 
Ag       9.01437316       1.72616490      14.26821572 
Ag       2.98980531       1.72616490      14.26821572 
Ag       6.00208924       1.72660390      14.22502839 
Ag      10.50365616       4.30603990      14.25121780 
Ag       4.49632746       4.33465980      14.22502839 
Ag       7.50785102       4.33465980      14.22502839 
Ag      12.02634430       6.94341312      14.25121780 
Ag       6.00208924       6.94359370      14.26821572 
Ag       8.98096802       6.94341312      14.25121780 
Ag      13.41914312       7.74754589      16.62461069 
Ag       7.58816920       7.74754589      16.62461069 
Ag       6.00208924       0.00137770      16.56653242 
Ag      10.50365616       2.69777435      16.62461069 
Ag       4.53117276       2.61607381      16.55209891 
Ag       7.47300571       2.61607381      16.55209891 
Ag       3.00223774       5.19727290      16.56653242 
Ag       6.00208924       5.16377588      16.55209891 
Ag       9.00194073       5.19727290      16.56653242 
Cl       1.50052231       0.86632696      18.53593963 
