46
Lattice="9.003133853867665 0.0 0.0 4.501566926933832 7.796942631121092 0.0 0.0 0.0 23.801370679090148" Properties=species:S:1:pos:R:3 pbc="T T T"
Ag       9.00313385       1.73265392       7.00000000 
Ag       3.00104462       1.73265392       7.00000000 
Ag       6.00208924       1.73265392       7.00000000 
Ag      10.50365616       4.33163480       7.00000000 
Ag       4.50156693       4.33163480       7.00000000 
Ag       7.50261154       4.33163480       7.00000000 
Ag      12.00417847       6.93061567       7.00000000 
Ag       6.00208924       6.93061567       7.00000000 
Ag       9.00313385       6.93061567       7.00000000 
Ag       0.00000000       0.00000000       9.45034267 
Ag       3.00104462       0.00000000       9.45034267 
Ag       6.00208924       0.00000000       9.45034267 
Ag       1.50052231       2.59898088       9.45034267 
Ag       4.50156693       2.59898088       9.45034267 
Ag       7.50261154       2.59898088       9.45034267 
Ag       3.00104462       5.19796175       9.45034267 
Ag       6.00208924       5.19796175       9.45034267 
Ag       9.00313385       5.19796175       9.45034267 
Ag       1.50052231       0.86632696      11.90068534 
Ag       4.50156693       0.86632696      11.90068534 
Ag       7.50261154       0.86632696      11.90068534 
Ag       3.00104462       3.46530784      11.90068534 
Ag       6.00208924       3.46530784      11.90068534 
Ag       9.00313385       3.46530784      11.90068534 
Ag       4.50156693       6.06428871      11.90068534 
Ag       7.50261154       6.06428871      11.90068534 
Ag      10.50365616       6.06428871      11.90068534 
Ag      13.48811722       7.78736811      16.31770140 
Ag       7.51919511       7.78736811      16.31770140 
Ag      10.50365616       7.74622712      15.70704769 
Ag      10.50365616       2.61812993      16.31770140 
Ag       4.45457099       2.57184776      15.95863910 
Ag       7.54960748       2.57184776      15.95863910 
Ag      11.96025755       5.22331951      15.70704769 
Ag       6.00208924       5.25222798      15.95863910 
Ag       9.04705477       5.22331951      15.70704769 
Ni       9.18000418       1.63053779      14.03755726 
Ni       2.82417429       1.63053779      14.03755726 
Ni       6.00208924       1.91618380      13.94261245 
Ni      10.50365616       3.76832455      14.01768258 
Ni       4.66050846       4.23986986      13.94261245 
Ni       7.34367001       4.23986986      13.94261245 
Ni      12.49201946       7.21227080      14.01768258 
Ni       6.00208924       7.13484794      14.03755726 
Ni       8.51529287       7.21227080      14.01768258 
O       1.50052231       0.86632696      17.57396299 
