47
Lattice="9.003133853867665 0.0 0.0 4.501566926933832 7.796942631121092 0.0 0.0 0.0 23.801370679090148" Properties=species:S:1:pos:R:3 pbc="T T T"
Ag       9.00313385       1.73265392       7.00000000 
Ag       3.00104462       1.73265392       7.00000000 
Ag       6.00208924       1.73265392       7.00000000 
Ag      10.50365616       4.33163480       7.00000000 
Ag       4.50156693       4.33163480       7.00000000 
Ag       7.50261154       4.33163480       7.00000000 
Ag      12.00417847       6.93061567       7.00000000 
Ag       6.00208924       6.93061567       7.00000000 
Ag       9.00313385       6.93061567       7.00000000 
Ag       0.00000000       0.00000000       9.45034267 
Ag       3.00104462       0.00000000       9.45034267 
Ag       6.00208924       0.00000000       9.45034267 
Ag       1.50052231       2.59898088       9.45034267 
Ag       4.50156693       2.59898088       9.45034267 
Ag       7.50261154       2.59898088       9.45034267 
Ag       3.00104462       5.19796175       9.45034267 
Ag       6.00208924       5.19796175       9.45034267 
Ag       9.00313385       5.19796175       9.45034267 
Ag       1.50052231       0.86632696      11.90068534 
Ag       4.50156693       0.86632696      11.90068534 
Ag       7.50261154       0.86632696      11.90068534 
Ag       3.00104462       3.46530784      11.90068534 
Ag       6.00208924       3.46530784      11.90068534 
Ag       9.00313385       3.46530784      11.90068534 
Ag       4.50156693       6.06428871      11.90068534 
Ag       7.50261154       6.06428871      11.90068534 
Ag      10.50365616       6.06428871      11.90068534 
Ag      13.45693583       7.76936553      16.32018656 
Ag       7.58399122       7.76514931      16.31218925 
Ag      10.51862121       7.75921293      15.71515470 
Ag      10.51681218       2.68535440      16.31218925 
Ag       4.47373053       2.58290953      15.97259215 
Ag       7.54933882       2.57448710      15.92643455 
Ag      11.97898612       5.22978672      15.71515470 
Ag       6.00424064       5.25067564      15.92643455 
Ag       9.04774735       5.22371937      15.70989089 
Ni       9.22753792       1.62317251      14.05881402 
Ni       2.83026940       1.63405680      14.05524937 
Ni       5.96718743       1.91116028      13.93140128 
Ni      10.51340313       3.77977727      14.01015195 
Ni       4.63870706       4.21215576      13.93140128 
Ni       7.35551129       4.24670643      13.92350859 
Ni      12.51044054       7.22290621      14.01591103 
Ni       6.01947759       7.17969600      14.05881402 
Ni       8.53008470       7.21498555      14.01015195 
O       1.52718927       0.88172314      17.72898423 
H       1.53923436       0.88867737      18.70208419 
