46
Lattice="9.003133853867665 0.0 0.0 4.501566926933832 7.796942631121092 0.0 0.0 0.0 23.801370679090148" Properties=species:S:1:pos:R:3 pbc="T T T"
Ag       9.00313385       1.73265392       7.00000000 
Ag       3.00104462       1.73265392       7.00000000 
Ag       6.00208924       1.73265392       7.00000000 
Ag      10.50365616       4.33163480       7.00000000 
Ag       4.50156693       4.33163480       7.00000000 
Ag       7.50261154       4.33163480       7.00000000 
Ag      12.00417847       6.93061567       7.00000000 
Ag       6.00208924       6.93061567       7.00000000 
Ag       9.00313385       6.93061567       7.00000000 
Ag       0.00000000       0.00000000       9.45034267 
Ag       3.00104462       0.00000000       9.45034267 
Ag       6.00208924       0.00000000       9.45034267 
Ag       1.50052231       2.59898088       9.45034267 
Ag       4.50156693       2.59898088       9.45034267 
Ag       7.50261154       2.59898088       9.45034267 
Ag       3.00104462       5.19796175       9.45034267 
Ag       6.00208924       5.19796175       9.45034267 
Ag       9.00313385       5.19796175       9.45034267 
Ag       1.50052231       0.86632696      11.90068534 
Ag       4.50156693       0.86632696      11.90068534 
Ag       7.50261154       0.86632696      11.90068534 
Ag       3.00104462       3.46530784      11.90068534 
Ag       6.00208924       3.46530784      11.90068534 
Ag       9.00313385       3.46530784      11.90068534 
Ag       4.50156693       6.06428871      11.90068534 
Ag       7.50261154       6.06428871      11.90068534 
Ag      10.50365616       6.06428871      11.90068534 
Ag      13.47489709       7.77973546      16.33587659 
Ag       7.53241523       7.77973546      16.33587659 
Ag      10.50365616       7.74488957      15.68622520 
Ag      10.50365616       2.63339521      16.33587659 
Ag       4.44748312       2.56775558      15.96222277 
Ag       7.55669535       2.56775558      15.96222277 
Ag      11.95909920       5.22398829      15.68622520 
Ag       6.00208924       5.26041236      15.96222277 
Ag       9.04821313       5.22398829      15.68622520 
Ni       9.19142285       1.62394521      14.04579968 
Ni       2.81275562       1.62394521      14.04579968 
Ni       6.00208924       1.92855381      13.94340163 
Ni      10.50365616       3.75011206      14.01626274 
Ni       4.67122121       4.23368485      13.94340163 
Ni       7.33295726       4.23368485      13.94340163 
Ni      12.50779193       7.22137704      14.01626274 
Ni       6.00208924       7.14803308      14.04579968 
Ni       8.49952039       7.22137704      14.01626274 
S       1.50052231       0.86632696      18.03069468 
