46
Lattice="8.35212609627333 0.0 0.0 4.176063048136665 7.233153374983659 0.0 0.0 0.0 23.09264320144588" Properties=species:S:1:pos:R:3 pbc="T T T"
Pt       8.35212610       1.60736742       7.00000000 
Pt       2.78404203       1.60736742       7.00000000 
Pt       5.56808406       1.60736742       7.00000000 
Pt       9.74414711       4.01841854       7.00000000 
Pt       4.17606305       4.01841854       7.00000000 
Pt       6.96010508       4.01841854       7.00000000 
Pt      11.13616813       6.42946967       7.00000000 
Pt       5.56808406       6.42946967       7.00000000 
Pt       8.35212610       6.42946967       7.00000000 
Pt       0.00000000       0.00000000       9.27316080 
Pt       2.78404203       0.00000000       9.27316080 
Pt       5.56808406       0.00000000       9.27316080 
Pt       1.39202102       2.41105112       9.27316080 
Pt       4.17606305       2.41105112       9.27316080 
Pt       6.96010508       2.41105112       9.27316080 
Pt       2.78404203       4.82210225       9.27316080 
Pt       5.56808406       4.82210225       9.27316080 
Pt       8.35212610       4.82210225       9.27316080 
Pt       1.39383027       0.80472828      11.63945791 
Pt       4.17606305       0.80117323      11.64570096 
Pt       6.95829583       0.80472828      11.63945791 
Pt       2.78186790       3.21599007      11.64570096 
Pt       5.57025820       3.21599007      11.64570096 
Pt       8.35212610       3.22012398      11.64899949 
Pt       4.17606305       5.62369681      11.63945791 
Pt       6.96477222       5.62309139      11.64899949 
Pt       9.73947998       5.62309139      11.64899949 
Pt       0.00000000       0.00000000      16.09470321 
Pt       6.97131585       7.23182914      16.09055920 
Pt       9.73293634       7.23182914      16.09055920 
Pt       9.74860568       2.42142205      16.09055920 
Pt       4.17606305       2.41105112      16.10010679 
Pt       6.95564651       2.42142205      16.09055920 
Pt      11.12941592       4.81305555      16.09055920 
Pt       5.57483627       4.81305555      16.09055920 
Pt       8.35212610       4.82210225      16.10254364 
W       8.35212610       1.57976770      13.86568768 
W       2.78445301       1.60760470      13.85641039 
W       5.56767308       1.60760470      13.85641039 
W       9.74757666       4.01643849      13.87928531 
W       4.17606305       4.01794398      13.85641039 
W       6.95667553       4.01643849      13.87928531 
W      11.16007019       6.44326953      13.86568768 
W       5.54418201       6.44326953      13.86568768 
W       8.35212610       6.43342977      13.87928531 
F       0.00000000       0.00000000      18.13916653 
