46
Lattice="8.423763084275341 0.0 0.0 4.211881542137671 7.295192826444 0.0 0.0 0.0 23.170631675808018" Properties=species:S:1:pos:R:3 pbc="T T T"
Pt       8.42376308       1.62115396       7.00000000 
Pt       2.80792103       1.62115396       7.00000000 
Pt       5.61584206       1.62115396       7.00000000 
Pt       9.82772360       4.05288490       7.00000000 
Pt       4.21188154       4.05288490       7.00000000 
Pt       7.01980257       4.05288490       7.00000000 
Pt      11.23168411       6.48461585       7.00000000 
Pt       5.61584206       6.48461585       7.00000000 
Pt       8.42376308       6.48461585       7.00000000 
Pt       0.00000000       0.00000000       9.29265792 
Pt       2.80792103       0.00000000       9.29265792 
Pt       5.61584206       0.00000000       9.29265792 
Pt       1.40396051       2.43173094       9.29265792 
Pt       4.21188154       2.43173094       9.29265792 
Pt       7.01980257       2.43173094       9.29265792 
Pt       2.80792103       4.86346188       9.29265792 
Pt       5.61584206       4.86346188       9.29265792 
Pt       8.42376308       4.86346188       9.29265792 
Pt       1.40396051       0.81057698      11.57682728 
Pt       4.21113558       0.80348464      11.57288421 
Pt       7.02054853       0.80348464      11.57288421 
Pt       2.80140590       3.24520807      11.57288421 
Pt       5.61584206       3.24230792      11.55927349 
Pt       8.43027821       3.24520807      11.57288421 
Pt       4.20611237       5.67823105      11.57288421 
Pt       7.02557174       5.67823105      11.57288421 
Pt       9.82772360       5.67403887      11.56015911 
Pt       8.42907910       1.61808476      13.85722857 
Pt       2.80260501       1.61808476      13.85722857 
Pt       5.61584206       1.61722783      13.82832857 
Pt       9.82772360       4.04366126      13.87703710 
Pt       4.20848142       4.05484797      13.82832857 
Pt       7.02320270       4.05484797      13.82832857 
Pt      11.23967203       6.48922767      13.87703710 
Pt       5.61584206       6.49075426      13.85722857 
Pt       8.41577517       6.48922767      13.87703710 
Pt      12.55380397       7.24794210      16.22710314 
Pt       7.10164323       7.24794210      16.22710314 
Pt       9.82772360       7.29511796      16.17363203 
Pt       9.82772360       2.52623239      16.22710314 
Pt       4.24593130       2.45138958      16.13738101 
Pt       6.98575281       2.45138958      16.13738101 
Pt      11.23161928       4.86349932      16.17363203 
Pt       5.61584206       4.82414461      16.13738101 
Pt       8.42382792       4.86349932      16.17363203 
S       1.40396051       0.81057698      17.71341881 
