46
Lattice="8.91486783569249 0.0 0.0 4.457433917846245 7.720502017090492 0.0 0.0 0.0 23.7052788096873" Properties=species:S:1:pos:R:3 pbc="T T T"
Ag       8.91486784       1.71566711       7.00000000 
Ag       2.97162261       1.71566711       7.00000000 
Ag       5.94324522       1.71566711       7.00000000 
Ag      10.40067914       4.28916779       7.00000000 
Ag       4.45743392       4.28916779       7.00000000 
Ag       7.42905653       4.28916779       7.00000000 
Ag      11.88649045       6.86266846       7.00000000 
Ag       5.94324522       6.86266846       7.00000000 
Ag       8.91486784       6.86266846       7.00000000 
Ag       0.00000000       0.00000000       9.42631970 
Ag       2.97162261       0.00000000       9.42631970 
Ag       5.94324522       0.00000000       9.42631970 
Ag       1.48581131       2.57350067       9.42631970 
Ag       4.45743392       2.57350067       9.42631970 
Ag       7.42905653       2.57350067       9.42631970 
Ag       2.97162261       5.14700134       9.42631970 
Ag       5.94324522       5.14700134       9.42631970 
Ag       8.91486784       5.14700134       9.42631970 
Ag       1.48581131       0.85783356      11.85263940 
Ag       4.45743392       0.85783356      11.85263940 
Ag       7.42905653       0.85783356      11.85263940 
Ag       2.97162261       3.43133423      11.85263940 
Ag       5.94324522       3.43133423      11.85263940 
Ag       8.91486784       3.43133423      11.85263940 
Ag       4.45743392       6.00483490      11.85263940 
Ag       7.42905653       6.00483490      11.85263940 
Ag      10.40067914       6.00483490      11.85263940 
Ag      13.33245213       7.69749483      16.45830903 
Ag       7.46890615       7.69749483      16.45830903 
Ag      10.40067914       7.67821894      15.70711082 
Ag      10.40067914       2.61951505      16.45830903 
Ag       4.40009711       2.54039725      16.07567124 
Ag       7.48639334       2.54039725      16.07567124 
Ag      11.84987223       5.16814288      15.70711082 
Ag       5.94324522       5.21320818      16.07567124 
Ag       8.95148605       5.16814288      15.70711082 
Co       9.05325682       1.63576820      14.05510616 
Co       2.83323363       1.63576820      14.05510616 
Co       5.94324522       1.99838299      13.98151173 
Co      10.40067914       3.58350535      14.04726745 
Co       4.70227304       4.14780985      13.98151173 
Co       7.18421740       4.14780985      13.98151173 
Co      12.49761204       7.21549968      14.04726745 
Co       5.94324522       7.02246630      14.05510616 
Co       8.30374624       7.21549968      14.04726745 
S       1.48581131       0.85783356      18.16573910 
