46
Lattice="9.003133853867665 0.0 0.0 4.501566926933832 7.796942631121092 0.0 0.0 0.0 23.801370679090148" Properties=species:S:1:pos:R:3 pbc="T T T"
Ag       9.00313385       1.73265392       7.00000000 
Ag       3.00104462       1.73265392       7.00000000 
Ag       6.00208924       1.73265392       7.00000000 
Ag      10.50365616       4.33163480       7.00000000 
Ag       4.50156693       4.33163480       7.00000000 
Ag       7.50261154       4.33163480       7.00000000 
Ag      12.00417847       6.93061567       7.00000000 
Ag       6.00208924       6.93061567       7.00000000 
Ag       9.00313385       6.93061567       7.00000000 
Ag       0.00000000       0.00000000       9.45034267 
Ag       3.00104462       0.00000000       9.45034267 
Ag       6.00208924       0.00000000       9.45034267 
Ag       1.50052231       2.59898088       9.45034267 
Ag       4.50156693       2.59898088       9.45034267 
Ag       7.50261154       2.59898088       9.45034267 
Ag       3.00104462       5.19796175       9.45034267 
Ag       6.00208924       5.19796175       9.45034267 
Ag       9.00313385       5.19796175       9.45034267 
Ag       1.50052231       0.86632696      11.90068534 
Ag       4.50156693       0.86632696      11.90068534 
Ag       7.50261154       0.86632696      11.90068534 
Ag       3.00104462       3.46530784      11.90068534 
Ag       6.00208924       3.46530784      11.90068534 
Ag       9.00313385       3.46530784      11.90068534 
Ag       4.50156693       6.06428871      11.90068534 
Ag       7.50261154       6.06428871      11.90068534 
Ag      10.50365616       6.06428871      11.90068534 
Ag      13.44206957       7.76078248      16.40990812 
Ag       7.56524276       7.76078248      16.40990812 
Ag       6.00208924       0.00028464      16.36121040 
Ag      10.50365616       2.67130117      16.40990812 
Ag       4.52532961       2.61270027      16.34192426 
Ag       7.47884887       2.61270027      16.34192426 
Ag       3.00129113       5.19781943      16.36121040 
Ag       6.00208924       5.17052298      16.34192426 
Ag       9.00288734       5.19781943      16.36121040 
Pd       9.01392898       1.72642135      14.14966776 
Pd       2.99024950       1.72642135      14.14966776 
Pd       6.00208924       1.72012031      14.13016097 
Pd      10.50365616       4.29963388      14.15073308 
Pd       4.49071251       4.33790160      14.13016097 
Pd       7.51346596       4.33790160      14.13016097 
Pd      12.03189208       6.94661613      14.15073308 
Pd       6.00208924       6.94308080      14.14966776 
Pd       8.97542025       6.94661613      14.15073308 
Cl       1.50052231       0.86632696      18.32682242 
