46
Lattice="8.255287822589835 0.0 0.0 4.127643911294918 7.149288969915119 0.0 0.0 0.0 22.987219042291855" Properties=species:S:1:pos:R:3 pbc="T T T"
Pt       8.25528782       1.58873088       7.00000000 
Pt       2.75176261       1.58873088       7.00000000 
Pt       5.50352522       1.58873088       7.00000000 
Pt       9.63116913       3.97182721       7.00000000 
Pt       4.12764391       3.97182721       7.00000000 
Pt       6.87940652       3.97182721       7.00000000 
Pt      11.00705043       6.35492353       7.00000000 
Pt       5.50352522       6.35492353       7.00000000 
Pt       8.25528782       6.35492353       7.00000000 
Pt       0.00000000       0.00000000       9.24680476 
Pt       2.75176261       0.00000000       9.24680476 
Pt       5.50352522       0.00000000       9.24680476 
Pt       1.37588130       2.38309632       9.24680476 
Pt       4.12764391       2.38309632       9.24680476 
Pt       6.87940652       2.38309632       9.24680476 
Pt       2.75176261       4.76619265       9.24680476 
Pt       5.50352522       4.76619265       9.24680476 
Pt       8.25528782       4.76619265       9.24680476 
Pt       1.37588130       0.79436544      11.64555025 
Pt       4.12415849       0.79433111      11.62033510 
Pt       6.88289194       0.79433111      11.62033510 
Pt       2.74999017       3.17446047      11.62033510 
Pt       5.50352522       3.17746176      11.60458236 
Pt       8.25706026       3.17446047      11.62033510 
Pt       4.12935689       5.56359371      11.62033510 
Pt       6.87769354       5.56359371      11.62033510 
Pt       9.63116913       5.56055809      11.63186244 
Pt      12.29269689       7.09719186      15.97748977 
Pt       6.96964136       7.09719186      15.97748977 
Pt       5.50352522       0.00178577      15.83391520 
Pt       9.63116913       2.48729055      15.97748977 
Pt       4.15196958       2.39714075      15.86952447 
Pt       6.85508085       2.39714075      15.86952447 
Pt       2.75330913       4.76529976      15.83391520 
Pt       5.50352522       4.73810378      15.86952447 
Pt       8.25374130       4.76529976      15.83391520 
Cu       8.26304117       1.58425449      13.78252395 
Cu       2.74400926       1.58425449      13.78252395 
Cu       5.50352522       1.59880520      13.72797281 
Cu       9.63116913       3.94310395      13.74624765 
Cu       4.13636852       3.96679005      13.72797281 
Cu       6.87068191       3.96679005      13.72797281 
Cu      11.03192550       6.36928515      13.74624765 
Cu       5.50352522       6.36387632      13.78252395 
Cu       8.23041276       6.36928515      13.74624765 
O       1.37588130       0.79436544      17.12136169 
