46
Lattice="8.394488863534217 0.0 0.0 4.197244431767109 7.269840607606193 0.0 0.0 0.0 23.138761940948747" Properties=species:S:1:pos:R:3 pbc="T T T"
Pd       8.39448886       1.61552014       7.00000000 
Pd       2.79816295       1.61552014       7.00000000 
Pd       5.59632591       1.61552014       7.00000000 
Pd       9.79357034       4.03880034       7.00000000 
Pd       4.19724443       4.03880034       7.00000000 
Pd       6.99540739       4.03880034       7.00000000 
Pd      11.19265182       6.46208054       7.00000000 
Pd       5.59632591       6.46208054       7.00000000 
Pd       8.39448886       6.46208054       7.00000000 
Pd       0.00000000       0.00000000       9.28469049 
Pd       2.79816295       0.00000000       9.28469049 
Pd       5.59632591       0.00000000       9.28469049 
Pd       1.39908148       2.42328020       9.28469049 
Pd       4.19724443       2.42328020       9.28469049 
Pd       6.99540739       2.42328020       9.28469049 
Pd       2.79816295       4.84656041       9.28469049 
Pd       5.59632591       4.84656041       9.28469049 
Pd       8.39448886       4.84656041       9.28469049 
Pd       1.39908148       0.80776007      11.56938097 
Pd       4.19724443       0.80776007      11.56938097 
Pd       6.99540739       0.80776007      11.56938097 
Pd       2.79816295       3.23104027      11.56938097 
Pd       5.59632591       3.23104027      11.56938097 
Pd       8.39448886       3.23104027      11.56938097 
Pd       4.19724443       5.65432047      11.56938097 
Pd       6.99540739       5.65432047      11.56938097 
Pd       9.79357034       5.65432047      11.56938097 
Pd      12.54114432       7.24063305      16.18903846 
Pd       7.04599636       7.24063305      16.18903846 
Pd       5.59632591      -0.00037432      16.14536077 
Pd       9.79357034       2.48169532      16.18903846 
Pd       4.21498971       2.43352544      16.13492985 
Pd       6.97766211       2.43352544      16.13492985 
Pd       2.79783878       4.84674757      16.14536077 
Pd       5.59632591       4.82606992      16.13492985 
Pd       8.39481304       4.84674757      16.14536077 
Pt       8.39330201       1.61620537      13.84578862 
Pt       2.79934981       1.61620537      13.84578862 
Pt       5.59632591       1.61379643      13.84683538 
Pt       9.79357034       4.03057175      13.87363132 
Pt       4.19575166       4.03966219      13.84683538 
Pt       6.99690016       4.03966219      13.84683538 
Pt      11.19977798       6.46619483      13.87363132 
Pt       5.59632591       6.46071008      13.84578862 
Pt       8.38736270       6.46619483      13.87363132 
S       1.39908148       0.80776007      17.69699836 
