47
Lattice="8.394488863534217 0.0 0.0 4.197244431767109 7.269840607606193 0.0 0.0 0.0 23.138761940948747" Properties=species:S:1:pos:R:3 pbc="T T T"
Pd       8.39448886       1.61552014       7.00000000 
Pd       2.79816295       1.61552014       7.00000000 
Pd       5.59632591       1.61552014       7.00000000 
Pd       9.79357034       4.03880034       7.00000000 
Pd       4.19724443       4.03880034       7.00000000 
Pd       6.99540739       4.03880034       7.00000000 
Pd      11.19265182       6.46208054       7.00000000 
Pd       5.59632591       6.46208054       7.00000000 
Pd       8.39448886       6.46208054       7.00000000 
Pd       0.00000000       0.00000000       9.28469049 
Pd       2.79816295       0.00000000       9.28469049 
Pd       5.59632591       0.00000000       9.28469049 
Pd       1.39908148       2.42328020       9.28469049 
Pd       4.19724443       2.42328020       9.28469049 
Pd       6.99540739       2.42328020       9.28469049 
Pd       2.79816295       4.84656041       9.28469049 
Pd       5.59632591       4.84656041       9.28469049 
Pd       8.39448886       4.84656041       9.28469049 
Pd       1.39908148       0.80776007      11.56938097 
Pd       4.19724443       0.80776007      11.56938097 
Pd       6.99540739       0.80776007      11.56938097 
Pd       2.79816295       3.23104027      11.56938097 
Pd       5.59632591       3.23104027      11.56938097 
Pd       8.39448886       3.23104027      11.56938097 
Pd       4.19724443       5.65432047      11.56938097 
Pd       6.99540739       5.65432047      11.56938097 
Pd       9.79357034       5.65432047      11.56938097 
Pd       4.19747032       7.17532033      16.17794272 
Pd       7.02114277       7.17470058      16.17899889 
Pd       9.80802887       7.21223624      16.15899032 
Pd       1.41187139       2.40889504      16.08208836 
Pd       4.20954754       2.35788334      16.12739597 
Pd       7.00900710       2.35822821      16.12549568 
Pd       2.80077165       4.77042839      16.13686694 
Pd       5.60932357       4.74087722      16.09356311 
Pd       8.41831123       4.77114970      16.14157509 
Pt       8.39975207       1.59507252      13.83747312 
Pt       2.80803423       1.59345198      13.83849916 
Pt       5.60362467       1.59752562      13.84148435 
Pt       9.80040248       4.03720761      13.82788999 
Pt       4.19979209       4.01765633      13.83477989 
Pt       7.00829409       4.01842003      13.83501331 
Pt      11.21485271       6.46065447      13.89695317 
Pt       5.60358942       6.44706406      13.82875832 
Pt       8.38848509       6.46130315      13.90048336 
O       5.61019675       7.21313766      17.77820432 
H       1.41483060       0.80506318      18.24261021 
