47
Lattice="8.762067010025547 0.0 0.0 4.381033505012773 7.5881726203436815 0.0 0.0 0.0 23.538930340727312" Properties=species:S:1:pos:R:3 pbc="T T T"
Au       8.76206701       1.68626058       7.00000000 
Au       2.92068900       1.68626058       7.00000000 
Au       5.84137801       1.68626058       7.00000000 
Au      10.22241151       4.21565146       7.00000000 
Au       4.38103351       4.21565146       7.00000000 
Au       7.30172251       4.21565146       7.00000000 
Au      11.68275601       6.74504233       7.00000000 
Au       5.84137801       6.74504233       7.00000000 
Au       8.76206701       6.74504233       7.00000000 
Au       0.00000000       0.00000000       9.38473259 
Au       2.92068900       0.00000000       9.38473259 
Au       5.84137801       0.00000000       9.38473259 
Au       1.46034450       2.52939087       9.38473259 
Au       4.38103351       2.52939087       9.38473259 
Au       7.30172251       2.52939087       9.38473259 
Au       2.92068900       5.05878175       9.38473259 
Au       5.84137801       5.05878175       9.38473259 
Au       8.76206701       5.05878175       9.38473259 
Au       1.46034450       0.84313029      11.76946517 
Au       4.38103351       0.84313029      11.76946517 
Au       7.30172251       0.84313029      11.76946517 
Au       2.92068900       3.37252116      11.76946517 
Au       5.84137801       3.37252116      11.76946517 
Au       8.76206701       3.37252116      11.76946517 
Au       4.38103351       5.90191204      11.76946517 
Au       7.30172251       5.90191204      11.76946517 
Au      10.22241151       5.90191204      11.76946517 
Au       4.34300001       7.47911069      16.44169618 
Au       7.35979537       7.47457304      16.44268398 
Au      10.23110248       7.55395698      16.19328426 
Au      10.22925537       2.55590886      16.07757240 
Au       4.38715465       2.47795623      16.39818318 
Au       7.31090752       2.47738982      16.39545449 
Au       2.91485858       4.97662104      16.46625619 
Au       5.84738131       4.95070001      16.10901378 
Au       8.78263682       4.97578453      16.46530819 
Ir       8.62586951       1.55997923      14.05602778 
Ir       3.07020856       1.55928036      14.05931050 
Ir       5.84783410       1.83041191      14.05008286 
Ir      10.22877925       4.44416556      14.03900612 
Ir       4.21136716       4.10778155      14.05324625 
Ir       7.48363186       4.10990518      14.05401421 
Ir      11.88162076       6.63804314      14.13552875 
Ir       5.85014987       6.89975441      14.04935378 
Ir       8.57897847       6.63880451      14.13339361 
O       1.47241134       0.02982372      18.09393067 
H       1.48148331       0.94187831      18.44691718 
