46
Lattice="8.67356128265155 0.0 0.0 4.336780641325775 7.511524412057382 0.0 0.0 0.0 23.442577509002792" Properties=species:S:1:pos:R:3 pbc="T T T"
Au       8.67356128       1.66922765       7.00000000 
Au       2.89118709       1.66922765       7.00000000 
Au       5.78237419       1.66922765       7.00000000 
Au      10.11915483       4.17306912       7.00000000 
Au       4.33678064       4.17306912       7.00000000 
Au       7.22796774       4.17306912       7.00000000 
Au      11.56474838       6.67691059       7.00000000 
Au       5.78237419       6.67691059       7.00000000 
Au       8.67356128       6.67691059       7.00000000 
Au       0.00000000       0.00000000       9.36064438 
Au       2.89118709       0.00000000       9.36064438 
Au       5.78237419       0.00000000       9.36064438 
Au       1.44559355       2.50384147       9.36064438 
Au       4.33678064       2.50384147       9.36064438 
Au       7.22796774       2.50384147       9.36064438 
Au       2.89118709       5.00768294       9.36064438 
Au       5.78237419       5.00768294       9.36064438 
Au       8.67356128       5.00768294       9.36064438 
Au       1.44559355       0.83461382      11.72128875 
Au       4.33678064       0.83461382      11.72128875 
Au       7.22796774       0.83461382      11.72128875 
Au       2.89118709       3.33845529      11.72128875 
Au       5.78237419       3.33845529      11.72128875 
Au       8.67356128       3.33845529      11.72128875 
Au       4.33678064       5.84229676      11.72128875 
Au       7.22796774       5.84229676      11.72128875 
Au      10.11915483       5.84229676      11.72128875 
Au      12.93993788       7.47087662      15.96718578 
Au       7.29837178       7.47087662      15.96718578 
Au      10.11915483       7.50278815      15.82545000 
Au      10.11915483       2.58513706      15.96718578 
Au       4.34439577       2.50823807      15.82079951 
Au       7.22035260       2.50823807      15.82079951 
Au      11.55718255       5.01205107      15.82545000 
Au       5.78237419       4.99888975      15.82079951 
Au       8.68112711       5.01205107      15.82545000 
Ni       8.72734735       1.63817424      13.80732742 
Ni       2.83740102       1.63817424      13.80732742 
Ni       5.78237419       1.65804352      13.77127286 
Ni      10.11915483       4.02986437      13.81009205 
Ni       4.32709490       4.17866118      13.77127286 
Ni       7.23765348       4.17866118      13.77127286 
Ni      11.68876733       6.74851296      13.81009205 
Ni       5.78237419       6.73901739      13.80732742 
Ni       8.54954233       6.74851296      13.81009205 
O       1.44559355       0.83461382      17.24144712 
