46
Lattice="8.592238345960848 0.0 0.0 4.296119172980424 7.44109668297288 0.0 0.0 0.0 23.354044309324177" Properties=species:S:1:pos:R:3 pbc="T T T"
Pt       8.59223835       1.65357704       7.00000000 
Pt       2.86407945       1.65357704       7.00000000 
Pt       5.72815890       1.65357704       7.00000000 
Pt      10.02427807       4.13394260       7.00000000 
Pt       4.29611917       4.13394260       7.00000000 
Pt       7.16019862       4.13394260       7.00000000 
Pt      11.45631779       6.61430816       7.00000000 
Pt       5.72815890       6.61430816       7.00000000 
Pt       8.59223835       6.61430816       7.00000000 
Pt       0.00000000       0.00000000       9.33851108 
Pt       2.86407945       0.00000000       9.33851108 
Pt       5.72815890       0.00000000       9.33851108 
Pt       1.43203972       2.48036556       9.33851108 
Pt       4.29611917       2.48036556       9.33851108 
Pt       7.16019862       2.48036556       9.33851108 
Pt       2.86407945       4.96073112       9.33851108 
Pt       5.72815890       4.96073112       9.33851108 
Pt       8.59223835       4.96073112       9.33851108 
Pt       1.43203972       0.82678852      11.58358052 
Pt       4.29883615       0.82390391      11.60643439 
Pt       7.15748164       0.82390391      11.60643439 
Pt       2.86293979       3.31094936      11.60643439 
Pt       5.72815890       3.30715408      11.60425532 
Pt       8.59337800       3.31094936      11.60643439 
Pt       4.29226253       5.78660898      11.60643439 
Pt       7.16405526       5.78660898      11.60643439 
Pt      10.02427807       5.78751964      11.61903005 
Pt      12.78248567       7.37997154      15.97113060 
Pt       7.26607047       7.37997154      15.97113060 
Pt      10.02427807       7.42664538      15.86224657 
Pt      10.02427807       2.60261584      15.97113060 
Pt       4.31204081       2.48955792      15.87388087 
Pt       7.14427699       2.48955792      15.87388087 
Pt      11.44380260       4.96795678      15.86224657 
Pt       5.72815890       4.94234640      15.87388087 
Pt       8.60475354       4.96795678      15.86224657 
Ru       8.61919670       1.63801263      13.70558840 
Ru       2.83712110       1.63801263      13.70558840 
Ru       5.72815890       1.65143900      13.71868496 
Ru      10.02427807       4.05986954      13.73362025 
Ru       4.29426758       4.13501162      13.71868496 
Ru       7.16205022       4.13501162      13.71868496 
Ru      11.52046695       6.65134469      13.73362025 
Ru       5.72815890       6.64543698      13.70558840 
Ru       8.52808919       6.65134469      13.73362025 
O       1.43203972       0.82678852      17.04811292 
