47
Lattice="8.592238345960848 0.0 0.0 4.296119172980424 7.44109668297288 0.0 0.0 0.0 23.354044309324177" Properties=species:S:1:pos:R:3 pbc="T T T"
Pt       8.59223835       1.65357704       7.00000000 
Pt       2.86407945       1.65357704       7.00000000 
Pt       5.72815890       1.65357704       7.00000000 
Pt      10.02427807       4.13394260       7.00000000 
Pt       4.29611917       4.13394260       7.00000000 
Pt       7.16019862       4.13394260       7.00000000 
Pt      11.45631779       6.61430816       7.00000000 
Pt       5.72815890       6.61430816       7.00000000 
Pt       8.59223835       6.61430816       7.00000000 
Pt       0.00000000       0.00000000       9.33851108 
Pt       2.86407945       0.00000000       9.33851108 
Pt       5.72815890       0.00000000       9.33851108 
Pt       1.43203972       2.48036556       9.33851108 
Pt       4.29611917       2.48036556       9.33851108 
Pt       7.16019862       2.48036556       9.33851108 
Pt       2.86407945       4.96073112       9.33851108 
Pt       5.72815890       4.96073112       9.33851108 
Pt       8.59223835       4.96073112       9.33851108 
Pt       1.43493148       0.82845807      11.59093180 
Pt       4.29380386       0.82446679      11.58830763 
Pt       7.15748624       0.83084088      11.58055343 
Pt       2.86091111       3.30630982      11.58830763 
Pt       5.73323402       3.31008421      11.59102825 
Pt       8.59324390       3.30434331      11.61517976 
Pt       4.29827243       5.78314447      11.58055343 
Pt       7.15826720       5.78979587      11.61517976 
Pt      10.01971936       5.78488767      11.58561335 
Pt       0.01123933       0.00648903      15.92979029 
Pt       7.17748006       7.43293931      15.83030067 
Pt       9.99837959       7.43470583      15.84545939 
Pt      10.02585430       2.49941041      15.83030067 
Pt       4.29495096       2.47969109      15.84477888 
Pt       7.15866071       2.50329531      15.84528824 
Pt      11.43783391       4.94149781      15.84545939 
Pt       5.74724768       4.94793438      15.84528824 
Pt       8.58989555       4.95937851      15.84704592 
Ru       8.57513179       1.55318339      13.72507847 
Ru       2.86542401       1.65435333      13.68613829 
Ru       5.73578276       1.64579157      13.68439837 
Ru      10.05000865       4.15475733      13.69290060 
Ru       4.29318869       4.14443779      13.68439837 
Ru       7.13909480       4.12175830      13.70340181 
Ru      11.48301938       6.62972433      13.69566643 
Ru       5.63266217       6.64969028      13.72507847 
Ru       8.62312972       6.62618413      13.69290060 
O      12.68575334       7.32412310      17.92737906 
H       0.56263629       0.32483821      18.34633888 
