46
Lattice="8.226599086263533 0.0 0.0 4.113299543131767 7.12444379545407 0.0 0.0 0.0 22.955986702129774" Properties=species:S:1:pos:R:3 pbc="T T T"
Pd       8.22659909       1.58320973       7.00000000 
Pd       2.74219970       1.58320973       7.00000000 
Pd       5.48439939       1.58320973       7.00000000 
Pd       9.59769893       3.95802433       7.00000000 
Pd       4.11329954       3.95802433       7.00000000 
Pd       6.85549924       3.95802433       7.00000000 
Pd      10.96879878       6.33283893       7.00000000 
Pd       5.48439939       6.33283893       7.00000000 
Pd       8.22659909       6.33283893       7.00000000 
Pd       0.00000000       0.00000000       9.23899668 
Pd       2.74219970       0.00000000       9.23899668 
Pd       5.48439939       0.00000000       9.23899668 
Pd       1.37109985       2.37481460       9.23899668 
Pd       4.11329954       2.37481460       9.23899668 
Pd       6.85549924       2.37481460       9.23899668 
Pd       2.74219970       4.74962920       9.23899668 
Pd       5.48439939       4.74962920       9.23899668 
Pd       8.22659909       4.74962920       9.23899668 
Pd       1.37109985       0.79160487      11.47799335 
Pd       4.11329954       0.79160487      11.47799335 
Pd       6.85549924       0.79160487      11.47799335 
Pd       2.74219970       3.16641946      11.47799335 
Pd       5.48439939       3.16641946      11.47799335 
Pd       8.22659909       3.16641946      11.47799335 
Pd       4.11329954       5.54123406      11.47799335 
Pd       6.85549924       5.54123406      11.47799335 
Pd       9.59769893       5.54123406      11.47799335 
Pd      12.28317999       7.09169727      16.40818974 
Pd       6.91221788       7.09169727      16.40818974 
Pd       5.48439939       0.00102824      16.33097597 
Pd       9.59769893       2.44030765      16.40818974 
Pd       4.13411432       2.38683202      16.33844827 
Pd       6.83468446       2.38683202      16.33844827 
Pd       2.74309017       4.74911508      16.33097597 
Pd       5.48439939       4.72559436      16.33844827 
Pd       8.22570861       4.74911508      16.33097597 
Au       8.22771510       1.58256540      13.92592877 
Au       2.74108368       1.58256540      13.92592877 
Au       5.48439939       1.58280310      13.90621244 
Au       9.59769893       3.95736716      13.92418115 
Au       4.11294739       3.95822765      13.90621244 
Au       6.85585139       3.95822765      13.90621244 
Au      10.96936791       6.33316751      13.92418115 
Au       5.48439939       6.33412759      13.92592877 
Au       8.22602996       6.33316751      13.92418115 
S       1.37109985       0.79160487      17.93373492 
