47
Lattice="8.65006978116697 0.0 0.0 4.325034890583485 7.491180174998695 0.0 0.0 0.0 23.417003201478764" Properties=species:S:1:pos:R:3 pbc="T T T"
Ag       8.65006978       1.66470671       7.00000000 
Ag       2.88335659       1.66470671       7.00000000 
Ag       5.76671319       1.66470671       7.00000000 
Ag      10.09174808       4.16176676       7.00000000 
Ag       4.32503489       4.16176676       7.00000000 
Ag       7.20839148       4.16176676       7.00000000 
Ag      11.53342637       6.65882682       7.00000000 
Ag       5.76671319       6.65882682       7.00000000 
Ag       8.65006978       6.65882682       7.00000000 
Ag       0.00000000       0.00000000       9.35425080 
Ag       2.88335659       0.00000000       9.35425080 
Ag       5.76671319       0.00000000       9.35425080 
Ag       1.44167830       2.49706006       9.35425080 
Ag       4.32503489       2.49706006       9.35425080 
Ag       7.20839148       2.49706006       9.35425080 
Ag       2.88335659       4.99412012       9.35425080 
Ag       5.76671319       4.99412012       9.35425080 
Ag       8.65006978       4.99412012       9.35425080 
Ag       1.44167830       0.83235335      11.70850160 
Ag       4.32503489       0.83235335      11.70850160 
Ag       7.20839148       0.83235335      11.70850160 
Ag       2.88335659       3.32941341      11.70850160 
Ag       5.76671319       3.32941341      11.70850160 
Ag       8.65006978       3.32941341      11.70850160 
Ag       4.32503489       5.82647347      11.70850160 
Ag       7.20839148       5.82647347      11.70850160 
Ag      10.09174808       5.82647347      11.70850160 
Ag      12.91920493       7.45890644      16.37771331 
Ag       7.29670544       7.45416399      16.36015774 
Ag       5.78126018       0.00221744      16.39080370 
Ag      10.10384810       2.59205028      16.36015774 
Ag       4.35453873       2.51409411      16.27076197 
Ag       7.19809113       2.51363143      16.29219055 
Ag       2.89255045       5.00560946      16.39080370 
Ag       5.77591423       4.97691406      16.29219055 
Ag       8.66049823       5.00014098      16.38119456 
Ir       8.67975040       1.65164989      14.02220669 
Ir       2.85252336       1.64690513      14.01432012 
Ir       5.78379950       1.59585087      14.01735900 
Ir      10.10148087       4.15120398      14.06057936 
Ir       4.27394714       4.21099186      14.01735900 
Ir       7.26351997       4.19359521      14.01835545 
Ir      11.54930266       6.66799300      14.06154675 
Ir       5.77024597       6.69105940      14.02220669 
Ir       8.64578854       6.67253706      14.06057936 
O       1.49322726       0.86211516      17.81806567 
H       1.55688564       0.89886835      18.78828301 
