46
Lattice="8.317442508656132 0.0 0.0 4.158721254328066 7.20311650701278 0.0 0.0 0.0 23.05488449384088" Properties=species:S:1:pos:R:3 pbc="T T T"
Rh       8.31744251       1.60069256       7.00000000 
Rh       2.77248084       1.60069256       7.00000000 
Rh       5.54496167       1.60069256       7.00000000 
Rh       9.70368293       4.00173139       7.00000000 
Rh       4.15872125       4.00173139       7.00000000 
Rh       6.93120209       4.00173139       7.00000000 
Rh      11.08992334       6.40277023       7.00000000 
Rh       5.54496167       6.40277023       7.00000000 
Rh       8.31744251       6.40277023       7.00000000 
Rh       0.00000000       0.00000000       9.26372112 
Rh       2.77248084       0.00000000       9.26372112 
Rh       5.54496167       0.00000000       9.26372112 
Rh       1.38624042       2.40103884       9.26372112 
Rh       4.15872125       2.40103884       9.26372112 
Rh       6.93120209       2.40103884       9.26372112 
Rh       2.77248084       4.80207767       9.26372112 
Rh       5.54496167       4.80207767       9.26372112 
Rh       8.31744251       4.80207767       9.26372112 
Rh       1.38624042       0.80034628      11.52744225 
Rh       4.15872125       0.80034628      11.52744225 
Rh       6.93120209       0.80034628      11.52744225 
Rh       2.77248084       3.20138511      11.52744225 
Rh       5.54496167       3.20138511      11.52744225 
Rh       8.31744251       3.20138511      11.52744225 
Rh       4.15872125       5.60242395      11.52744225 
Rh       6.93120209       5.60242395      11.52744225 
Rh       9.70368293       5.60242395      11.52744225 
Rh      12.39811065       7.15805252      15.77992637 
Rh       7.00925520       7.15805252      15.77992637 
Rh       5.54496167       0.00945878      15.64544243 
Rh       9.70368293       2.49116681      15.77992637 
Rh       4.20492255       2.42771316      15.66448012 
Rh       6.88500080       2.42771316      15.66448012 
Rh       2.78067238       4.79734828      15.64544243 
Rh       5.54496167       4.74872901      15.66448012 
Rh       8.30925097       4.79734828      15.64544243 
Cu       8.32789834       1.59465588      13.65572207 
Cu       2.76202500       1.59465588      13.65572207 
Cu       5.54496167       1.59825034      13.60411113 
Cu       9.70368293       4.01706600      13.60513528 
Cu       4.15660624       4.00295250      13.60411113 
Cu       6.93331711       4.00295250      13.60411113 
Cu      11.07664318       6.39510292      13.60513528 
Cu       5.54496167       6.41484359      13.65572207 
Cu       8.33072267       6.39510292      13.60513528 
S       1.38624042       0.80034628      17.21518529 
