46
Lattice="8.478433752169561 0.0 0.0 4.239216876084781 7.342539013682256 0.0 0.0 0.0 23.230149560358235" Properties=species:S:1:pos:R:3 pbc="T T T"
Pd       8.47843375       1.63167534       7.00000000 
Pd       2.82614458       1.63167534       7.00000000 
Pd       5.65228917       1.63167534       7.00000000 
Pd       9.89150604       4.07918834       7.00000000 
Pd       4.23921688       4.07918834       7.00000000 
Pd       7.06536146       4.07918834       7.00000000 
Pd      11.30457834       6.52670135       7.00000000 
Pd       5.65228917       6.52670135       7.00000000 
Pd       8.47843375       6.52670135       7.00000000 
Pd       0.00000000       0.00000000       9.30753739 
Pd       2.82614458       0.00000000       9.30753739 
Pd       5.65228917       0.00000000       9.30753739 
Pd       1.41307229       2.44751300       9.30753739 
Pd       4.23921688       2.44751300       9.30753739 
Pd       7.06536146       2.44751300       9.30753739 
Pd       2.82614458       4.89502601       9.30753739 
Pd       5.65228917       4.89502601       9.30753739 
Pd       8.47843375       4.89502601       9.30753739 
Pd       1.41307229       0.81583767      11.61507478 
Pd       4.23921688       0.81583767      11.61507478 
Pd       7.06536146       0.81583767      11.61507478 
Pd       2.82614458       3.26335067      11.61507478 
Pd       5.65228917       3.26335067      11.61507478 
Pd       8.47843375       3.26335067      11.61507478 
Pd       4.23921688       5.71086368      11.61507478 
Pd       7.06536146       5.71086368      11.61507478 
Pd       9.89150604       5.71086368      11.61507478 
Pd      12.68400234       7.32311217      15.67855276 
Pd       7.09900974       7.32311217      15.67855276 
Pd       9.89150604       7.33689621      15.61051715 
Pd       9.89150604       2.48636670      15.67855276 
Pd       4.25423438       2.45618337      15.62318558 
Pd       7.05034395       2.45618337      15.62318558 
Pd      11.29969153       4.89784741      15.61051715 
Pd       5.65228917       4.87768529      15.62318558 
Pd       8.48332056       4.89784741      15.61051715 
Ni       8.49167390       1.62403113      13.63198314 
Ni       2.81290444       1.62403113      13.63198314 
Ni       5.65228917       1.63464297      13.61690801 
Ni       9.89150604       4.02224315      13.63531812 
Ni       4.24178693       4.07770452      13.61690801 
Ni       7.06279141       4.07770452      13.61690801 
Ni      11.35389432       6.55517394      13.63531812 
Ni       5.65228917       6.54198975      13.63198314 
Ni       8.42911777       6.55517394      13.63531812 
Cl       1.41307229       0.81583767      17.54067234 
