46
Lattice="8.235898954649699 0.0 0.0 4.117949477324849 7.13249771772834 0.0 0.0 0.0 22.966111116450286" Properties=species:S:1:pos:R:3 pbc="T T T"
Rh       8.23589895       1.58499949       7.00000000 
Rh       2.74529965       1.58499949       7.00000000 
Rh       5.49059930       1.58499949       7.00000000 
Rh       9.60854878       3.96249873       7.00000000 
Rh       4.11794948       3.96249873       7.00000000 
Rh       6.86324913       3.96249873       7.00000000 
Rh      10.98119861       6.33999797       7.00000000 
Rh       5.49059930       6.33999797       7.00000000 
Rh       8.23589895       6.33999797       7.00000000 
Rh       0.00000000       0.00000000       9.24152778 
Rh       2.74529965       0.00000000       9.24152778 
Rh       5.49059930       0.00000000       9.24152778 
Rh       1.37264983       2.37749924       9.24152778 
Rh       4.11794948       2.37749924       9.24152778 
Rh       6.86324913       2.37749924       9.24152778 
Rh       2.74529965       4.75499848       9.24152778 
Rh       5.49059930       4.75499848       9.24152778 
Rh       8.23589895       4.75499848       9.24152778 
Rh       1.37264983       0.79249975      11.48305556 
Rh       4.11794948       0.79249975      11.48305556 
Rh       6.86324913       0.79249975      11.48305556 
Rh       2.74529965       3.16999899      11.48305556 
Rh       5.49059930       3.16999899      11.48305556 
Rh       8.23589895       3.16999899      11.48305556 
Rh       4.11794948       5.54749822      11.48305556 
Rh       6.86324913       5.54749822      11.48305556 
Rh       9.60854878       5.54749822      11.48305556 
Rh      12.29278922       7.09724517      16.06944589 
Rh       6.92430834       7.09724517      16.06944589 
Rh       5.49059930       0.00564324      15.95013057 
Rh       9.60854878       2.44800434      16.06944589 
Rh       4.15844702       2.40088051      15.95245871 
Rh       6.82275159       2.40088051      15.95245871 
Rh       2.75018684       4.75217686      15.95013057 
Rh       5.49059930       4.70823594      15.95245871 
Rh       8.23101177       4.75217686      15.95013057 
Pd       8.24011482       1.58256546      13.75618124 
Pd       2.74108379       1.58256546      13.75618124 
Pd       5.49059930       1.58202659      13.72430541 
Pd       9.60854878       3.95878420      13.73494985 
Pd       4.11537487       3.96398518      13.72430541 
Pd       6.86582374       3.96398518      13.72430541 
Pd      10.98441548       6.34185524      13.73494985 
Pd       5.49059930       6.34486603      13.75618124 
Pd       8.23268208       6.34185524      13.73494985 
S       1.37264983       0.79249975      17.55494956 
