47
Lattice="8.562378640804901 0.0 0.0 4.281189320402451 7.415237419758317 0.0 0.0 0.0 23.321537179767724" Properties=species:S:1:pos:R:3 pbc="T T T"
Pd       8.56237864       1.64783054       7.00000000 
Pd       2.85412621       1.64783054       7.00000000 
Pd       5.70825243       1.64783054       7.00000000 
Pd       9.98944175       4.11957634       7.00000000 
Pd       4.28118932       4.11957634       7.00000000 
Pd       7.13531553       4.11957634       7.00000000 
Pd      11.41650485       6.59132215       7.00000000 
Pd       5.70825243       6.59132215       7.00000000 
Pd       8.56237864       6.59132215       7.00000000 
Pd       0.00000000       0.00000000       9.33038429 
Pd       2.85412621       0.00000000       9.33038429 
Pd       5.70825243       0.00000000       9.33038429 
Pd       1.42706311       2.47174581       9.33038429 
Pd       4.28118932       2.47174581       9.33038429 
Pd       7.13531553       2.47174581       9.33038429 
Pd       2.85412621       4.94349161       9.33038429 
Pd       5.70825243       4.94349161       9.33038429 
Pd       8.56237864       4.94349161       9.33038429 
Pd       1.42706311       0.82391527      11.66076859 
Pd       4.28118932       0.82391527      11.66076859 
Pd       7.13531553       0.82391527      11.66076859 
Pd       2.85412621       3.29566108      11.66076859 
Pd       5.70825243       3.29566108      11.66076859 
Pd       8.56237864       3.29566108      11.66076859 
Pd       4.28118932       5.76740688      11.66076859 
Pd       7.13531553       5.76740688      11.66076859 
Pd       9.98944175       5.76740688      11.66076859 
Pd      12.77430546       7.37418971      16.39830447 
Pd       7.20607670       7.37349369      16.39576782 
Pd       9.99051835       7.39823789      16.28256335 
Pd       9.99145437       2.50695929      16.28153539 
Pd       4.29295607       2.45934256      16.30178457 
Pd       7.12641931       2.45921117      16.30181405 
Pd       2.83747933       4.90349361      16.29242326 
Pd       5.71012062       4.86137109      16.29271846 
Pd       8.58234658       4.90308401      16.29189868 
Ag       8.55915092       1.62627494      14.00462768 
Ag       2.85861429       1.62663385      14.00394376 
Ag       5.70879034       1.64300436      13.98272794 
Ag       9.99014959       4.11052631      13.96966814 
Ag       4.27936514       4.10974466      13.98260410 
Ag       7.13852031       4.10994808      13.98197919 
Ag      11.42196763       6.58634366      14.00368531 
Ag       5.70894394       6.58623707      14.02348197 
Ag       8.55852297       6.58623249      14.00318502 
O       5.71038259       7.36351745      17.89958996 
H       1.43044209       0.81465562      18.35756990 
