46
Lattice="8.423763084275341 0.0 0.0 4.211881542137671 7.295192826444 0.0 0.0 0.0 23.170631675808018" Properties=species:S:1:pos:R:3 pbc="T T T"
Pt       8.42376308       1.62115396       7.00000000 
Pt       2.80792103       1.62115396       7.00000000 
Pt       5.61584206       1.62115396       7.00000000 
Pt       9.82772360       4.05288490       7.00000000 
Pt       4.21188154       4.05288490       7.00000000 
Pt       7.01980257       4.05288490       7.00000000 
Pt      11.23168411       6.48461585       7.00000000 
Pt       5.61584206       6.48461585       7.00000000 
Pt       8.42376308       6.48461585       7.00000000 
Pt       0.00000000       0.00000000       9.29265792 
Pt       2.80792103       0.00000000       9.29265792 
Pt       5.61584206       0.00000000       9.29265792 
Pt       1.40396051       2.43173094       9.29265792 
Pt       4.21188154       2.43173094       9.29265792 
Pt       7.01980257       2.43173094       9.29265792 
Pt       2.80792103       4.86346188       9.29265792 
Pt       5.61584206       4.86346188       9.29265792 
Pt       8.42376308       4.86346188       9.29265792 
Pt       1.40396051       0.81057698      11.56888424 
Pt       4.21283412       0.80528788      11.58026667 
Pt       7.01884999       0.80528788      11.58026667 
Pt       2.80381682       3.24577743      11.58026667 
Pt       5.61584206       3.24230792      11.57729988 
Pt       8.42786729       3.24577743      11.58026667 
Pt       4.20682476       5.67585846      11.58026667 
Pt       7.02485935       5.67585846      11.58026667 
Pt       9.82772360       5.67403887      11.55205355 
Pt      12.57569211       7.26057923      16.07815610 
Pt       7.07975508       7.26057923      16.07815610 
Pt       9.82772360       7.29000247      16.00024261 
Pt       9.82772360       2.50095814      16.07815610 
Pt       4.23343997       2.44417771      15.98856018 
Pt       6.99824414       2.44417771      15.98856018 
Pt      11.22718913       4.86605706      16.00024261 
Pt       5.61584206       4.83856835      15.98856018 
Pt       8.42825807       4.86605706      16.00024261 
Ir       8.43545450       1.61440392      13.76643029 
Ir       2.79622962       1.61440392      13.76643029 
Ir       5.61584206       1.61553229      13.76221502 
Ir       9.82772360       4.03301242      13.78990150 
Ir       4.20701303       4.05569574      13.76221502 
Ir       7.02467108       4.05569574      13.76221502 
Ir      11.24889419       6.49455209      13.78990150 
Ir       5.61584206       6.49811593      13.76643029 
Ir       8.40655301       6.49455209      13.78990150 
S       1.40396051       0.81057698      17.64706745 
