46
Lattice="8.508000715118095 0.0 0.0 4.254000357559048 7.36814475470844 0.0 0.0 0.0 23.262337992566096" Properties=species:S:1:pos:R:3 pbc="T T T"
Pt       8.50800072       1.63736550       7.00000000 
Pt       2.83600024       1.63736550       7.00000000 
Pt       5.67200048       1.63736550       7.00000000 
Pt       9.92600083       4.09341375       7.00000000 
Pt       4.25400036       4.09341375       7.00000000 
Pt       7.09000060       4.09341375       7.00000000 
Pt      11.34400095       6.54946200       7.00000000 
Pt       5.67200048       6.54946200       7.00000000 
Pt       8.50800072       6.54946200       7.00000000 
Pt       0.00000000       0.00000000       9.31558450 
Pt       2.83600024       0.00000000       9.31558450 
Pt       5.67200048       0.00000000       9.31558450 
Pt       1.41800012       2.45604825       9.31558450 
Pt       4.25400036       2.45604825       9.31558450 
Pt       7.09000060       2.45604825       9.31558450 
Pt       2.83600024       4.91209650       9.31558450 
Pt       5.67200048       4.91209650       9.31558450 
Pt       8.50800072       4.91209650       9.31558450 
Pt       1.41800012       0.81868275      11.59648696 
Pt       4.24791278       0.81549593      11.57546252 
Pt       7.09608817       0.81549593      11.57546252 
Pt       2.83019659       3.27105242      11.57546252 
Pt       5.67200048       3.27473100      11.55433933 
Pt       8.51380437       3.27105242      11.57546252 
Pt       4.25428428       5.73764466      11.57546252 
Pt       7.08971667       5.73764466      11.57546252 
Pt       9.92600083       5.73077925      11.59780406 
Pt      12.64372948       7.29986062      16.38899472 
Pt       7.20827219       7.29986062      16.38899472 
Pt       5.67200048       0.00967781      16.31754874 
Pt       9.92600083       2.59261653      16.38899472 
Pt       4.29011763       2.47690057      16.30886197 
Pt       7.05388332       2.47690057      16.30886197 
Pt       2.84438147       4.90725760      16.31754874 
Pt       5.67200048       4.87039186      16.30886197 
Pt       8.49961948       4.90725760      16.31754874 
Au       8.51489383       1.63338576      13.98874772 
Au       2.82910712       1.63338576      13.98874772 
Au       5.67200048       1.63789214      13.91264398 
Au       9.92600083       4.08271647      13.96373806 
Au       4.25445644       4.09315043      13.91264398 
Au       7.08954452       4.09315043      13.91264398 
Au      11.35326507       6.55481064      13.96373806 
Au       5.67200048       6.55742149      13.98874772 
Au       8.49873660       6.55481064      13.96373806 
Cl       1.41800012       0.81868275      18.07269259 
