46
Lattice="8.939078464773537 0.0 0.0 4.469539232386769 7.741469036916281 0.0 0.0 0.0 23.731636004176345" Properties=species:S:1:pos:R:3 pbc="T T T"
Au       8.93907846       1.72032645       7.00000000 
Au       2.97969282       1.72032645       7.00000000 
Au       5.95938564       1.72032645       7.00000000 
Au      10.42892488       4.30081613       7.00000000 
Au       4.46953923       4.30081613       7.00000000 
Au       7.44923205       4.30081613       7.00000000 
Au      11.91877129       6.88130581       7.00000000 
Au       5.95938564       6.88130581       7.00000000 
Au       8.93907846       6.88130581       7.00000000 
Au       0.00000000       0.00000000       9.43290900 
Au       2.97969282       0.00000000       9.43290900 
Au       5.95938564       0.00000000       9.43290900 
Au       1.48984641       2.58048968       9.43290900 
Au       4.46953923       2.58048968       9.43290900 
Au       7.44923205       2.58048968       9.43290900 
Au       2.97969282       5.16097936       9.43290900 
Au       5.95938564       5.16097936       9.43290900 
Au       8.93907846       5.16097936       9.43290900 
Au       1.48984641       0.86016323      11.86581800 
Au       4.46953923       0.86016323      11.86581800 
Au       7.44923205       0.86016323      11.86581800 
Au       2.97969282       3.44065291      11.86581800 
Au       5.95938564       3.44065291      11.86581800 
Au       8.93907846       3.44065291      11.86581800 
Au       4.46953923       6.02114258      11.86581800 
Au       7.44923205       6.02114258      11.86581800 
Au      10.42892488       6.02114258      11.86581800 
Au      13.22621155       7.63615680      16.62697816 
Au       7.63163820       7.63615680      16.62697816 
Au      10.42892488       7.73460659      16.49699824 
Au      10.42892488       2.79111416      16.62697816 
Au       4.50016774       2.59817305      16.50299051 
Au       7.41860355       2.59817305      16.50299051 
Au      11.91282823       5.16441058      16.49699824 
Au       5.95938564       5.12561261      16.50299051 
Au       8.94502152       5.16441058      16.49699824 
Ag       8.95112382       1.71337206      14.23365669 
Ag       2.96764746       1.71337206      14.23365669 
Ag       5.95938564       1.71854061      14.17568264 
Ag      10.42892488       4.27971619      14.17661980 
Ag       4.46799264       4.30170905      14.17568264 
Ag       7.45077864       4.30170905      14.17568264 
Ag      11.93704437       6.89185578      14.17661980 
Ag       5.95938564       6.89521459      14.23365669 
Ag       8.92080538       6.89185578      14.17661980 
O       1.48984641       0.86016323      17.55060568 
