46
Lattice="9.003133853867665 0.0 0.0 4.501566926933832 7.796942631121092 0.0 0.0 0.0 23.801370679090148" Properties=species:S:1:pos:R:3 pbc="T T T"
Ag       9.00313385       1.73265392       7.00000000 
Ag       3.00104462       1.73265392       7.00000000 
Ag       6.00208924       1.73265392       7.00000000 
Ag      10.50365616       4.33163480       7.00000000 
Ag       4.50156693       4.33163480       7.00000000 
Ag       7.50261154       4.33163480       7.00000000 
Ag      12.00417847       6.93061567       7.00000000 
Ag       6.00208924       6.93061567       7.00000000 
Ag       9.00313385       6.93061567       7.00000000 
Ag       0.00000000       0.00000000       9.45034267 
Ag       3.00104462       0.00000000       9.45034267 
Ag       6.00208924       0.00000000       9.45034267 
Ag       1.50052231       2.59898088       9.45034267 
Ag       4.50156693       2.59898088       9.45034267 
Ag       7.50261154       2.59898088       9.45034267 
Ag       3.00104462       5.19796175       9.45034267 
Ag       6.00208924       5.19796175       9.45034267 
Ag       9.00313385       5.19796175       9.45034267 
Ag       1.50052231       0.86632696      11.90068534 
Ag       4.50156693       0.86632696      11.90068534 
Ag       7.50261154       0.86632696      11.90068534 
Ag       3.00104462       3.46530784      11.90068534 
Ag       6.00208924       3.46530784      11.90068534 
Ag       9.00313385       3.46530784      11.90068534 
Ag       4.50156693       6.06428871      11.90068534 
Ag       7.50261154       6.06428871      11.90068534 
Ag      10.50365616       6.06428871      11.90068534 
Ag      13.47767615       7.78133996      16.76094157 
Ag       7.52963617       7.78133996      16.76094157 
Ag      10.50365616       7.72892571      16.66169164 
Ag      10.50365616       2.63018623      16.76094157 
Ag       4.58626754       2.64788280      15.96570866 
Ag       7.41791093       2.64788280      15.96570866 
Ag      11.94527409       5.23197021      16.66169164 
Ag       6.00208924       5.10015791      15.96570866 
Ag       9.06203823       5.23197021      16.66169164 
Ir       9.20262907       1.61747530      14.19414475 
Ir       2.80154940       1.61747530      14.19414475 
Ir       6.00208924       1.04202468      14.15492969 
Ir      10.50365616       3.92607975      14.41413024 
Ir       3.90346446       4.67694941      14.15492969 
Ir       8.10071401       4.67694941      14.15492969 
Ir      12.35539944       7.13339319      14.41413024 
Ir       6.00208924       7.16097291      14.19414475 
Ir       8.65191288       7.13339319      14.41413024 
Cl       1.50052231       0.86632696      18.62354679 
