47
Lattice="9.003133853867665 0.0 0.0 4.501566926933832 7.796942631121092 0.0 0.0 0.0 23.801370679090148" Properties=species:S:1:pos:R:3 pbc="T T T"
Ag       9.00313385       1.73265392       7.00000000 
Ag       3.00104462       1.73265392       7.00000000 
Ag       6.00208924       1.73265392       7.00000000 
Ag      10.50365616       4.33163480       7.00000000 
Ag       4.50156693       4.33163480       7.00000000 
Ag       7.50261154       4.33163480       7.00000000 
Ag      12.00417847       6.93061567       7.00000000 
Ag       6.00208924       6.93061567       7.00000000 
Ag       9.00313385       6.93061567       7.00000000 
Ag       0.00000000       0.00000000       9.45034267 
Ag       3.00104462       0.00000000       9.45034267 
Ag       6.00208924       0.00000000       9.45034267 
Ag       1.50052231       2.59898088       9.45034267 
Ag       4.50156693       2.59898088       9.45034267 
Ag       7.50261154       2.59898088       9.45034267 
Ag       3.00104462       5.19796175       9.45034267 
Ag       6.00208924       5.19796175       9.45034267 
Ag       9.00313385       5.19796175       9.45034267 
Ag       1.50052231       0.86632696      11.90068534 
Ag       4.50156693       0.86632696      11.90068534 
Ag       7.50261154       0.86632696      11.90068534 
Ag       3.00104462       3.46530784      11.90068534 
Ag       6.00208924       3.46530784      11.90068534 
Ag       9.00313385       3.46530784      11.90068534 
Ag       4.50156693       6.06428871      11.90068534 
Ag       7.50261154       6.06428871      11.90068534 
Ag      10.50365616       6.06428871      11.90068534 
Ag      13.47909459       7.78215889      16.53496251 
Ag       7.57163835       7.76551679      16.53366066 
Ag      10.51160187       7.71970191      16.46910348 
Ag      10.51095399       2.67447277      16.53366066 
Ag       4.56610545       2.63624221      16.18213364 
Ag       7.42929997       2.64253743      16.27688150 
Ag      11.94125890       5.24346330      16.46910348 
Ag       6.00315453       5.11269379      16.27688150 
Ag       9.07260888       5.23807318      16.46374020 
Ir       8.95267299       1.78893966      14.14995829 
Ir       2.95443984       1.70574664      14.14686962 
Ir       6.04495121       1.37270317      14.14747247 
Ir      10.50105508       4.05720742      14.21234499 
Ir       4.21127142       4.54872973      14.14747247 
Ir       7.78729545       4.49599713      14.15383755 
Ir      12.26687236       7.08228206      14.22099507 
Ir       6.02560369       6.85877241      14.14995829 
Ir       8.76417224       7.06557676      14.21234499 
O       1.54372528       0.89127021      17.92598060 
H       1.57986623       0.91213619      18.89766442 
