46
Lattice="9.003133853867665 0.0 0.0 4.501566926933832 7.796942631121092 0.0 0.0 0.0 23.801370679090148" Properties=species:S:1:pos:R:3 pbc="T T T"
Ag       9.00313385       1.73265392       7.00000000 
Ag       3.00104462       1.73265392       7.00000000 
Ag       6.00208924       1.73265392       7.00000000 
Ag      10.50365616       4.33163480       7.00000000 
Ag       4.50156693       4.33163480       7.00000000 
Ag       7.50261154       4.33163480       7.00000000 
Ag      12.00417847       6.93061567       7.00000000 
Ag       6.00208924       6.93061567       7.00000000 
Ag       9.00313385       6.93061567       7.00000000 
Ag       0.00000000       0.00000000       9.45034267 
Ag       3.00104462       0.00000000       9.45034267 
Ag       6.00208924       0.00000000       9.45034267 
Ag       1.50052231       2.59898088       9.45034267 
Ag       4.50156693       2.59898088       9.45034267 
Ag       7.50261154       2.59898088       9.45034267 
Ag       3.00104462       5.19796175       9.45034267 
Ag       6.00208924       5.19796175       9.45034267 
Ag       9.00313385       5.19796175       9.45034267 
Ag       1.50052231       0.86632696      11.90068534 
Ag       4.50156693       0.86632696      11.90068534 
Ag       7.50261154       0.86632696      11.90068534 
Ag       3.00104462       3.46530784      11.90068534 
Ag       6.00208924       3.46530784      11.90068534 
Ag       9.00313385       3.46530784      11.90068534 
Ag       4.50156693       6.06428871      11.90068534 
Ag       7.50261154       6.06428871      11.90068534 
Ag      10.50365616       6.06428871      11.90068534 
Ag       0.02944092       0.01699772      16.48555442 
Ag       2.97160370       0.01699772      16.48555442 
Ag      10.50365616       7.71987598      16.43157357 
Ag       1.50052231       2.56498543      16.48555442 
Ag       4.57460649       2.64115029      16.37417796 
Ag       7.42957198       2.64115029      16.37417796 
Ag      11.93743680       5.23649508      16.43157357 
Ag       6.00208924       5.11362293      16.37417796 
Ag       9.06987553       5.23649508      16.43157357 
Ir       8.80273053       1.84835683      14.12577453 
Ir       3.20144794       1.84835683      14.12577453 
Ir       6.00208924       1.46490345      14.17050139 
Ir      10.50365616       4.03300356      14.21933543 
Ir       4.26968822       4.46551003      14.17050139 
Ir       7.73449025       4.46551003      14.17050139 
Ir      12.26280071       7.07993129      14.21933543 
Ir       6.00208924       6.69920985      14.12577453 
Ir       8.74451162       7.07993129      14.21933543 
O       1.50052231       0.86632696      17.80118356 
