47
Lattice="8.762067010025547 0.0 0.0 4.381033505012773 7.5881726203436815 0.0 0.0 0.0 23.538930340727312" Properties=species:S:1:pos:R:3 pbc="T T T"
Au       8.76206701       1.68626058       7.00000000 
Au       2.92068900       1.68626058       7.00000000 
Au       5.84137801       1.68626058       7.00000000 
Au      10.22241151       4.21565146       7.00000000 
Au       4.38103351       4.21565146       7.00000000 
Au       7.30172251       4.21565146       7.00000000 
Au      11.68275601       6.74504233       7.00000000 
Au       5.84137801       6.74504233       7.00000000 
Au       8.76206701       6.74504233       7.00000000 
Au       0.00000000       0.00000000       9.38473259 
Au       2.92068900       0.00000000       9.38473259 
Au       5.84137801       0.00000000       9.38473259 
Au       1.46034450       2.52939087       9.38473259 
Au       4.38103351       2.52939087       9.38473259 
Au       7.30172251       2.52939087       9.38473259 
Au       2.92068900       5.05878175       9.38473259 
Au       5.84137801       5.05878175       9.38473259 
Au       8.76206701       5.05878175       9.38473259 
Au       1.46034450       0.84313029      11.76946517 
Au       4.38103351       0.84313029      11.76946517 
Au       7.30172251       0.84313029      11.76946517 
Au       2.92068900       3.37252116      11.76946517 
Au       5.84137801       3.37252116      11.76946517 
Au       8.76206701       3.37252116      11.76946517 
Au       4.38103351       5.90191204      11.76946517 
Au       7.30172251       5.90191204      11.76946517 
Au      10.22241151       5.90191204      11.76946517 
Au      13.09022853       7.54824527      16.61102720 
Au       7.39404458       7.54639444      16.60771482 
Au      10.24199979       7.56612121      16.52739298 
Au       1.47725451       2.55885183      16.47699287 
Au       4.39202608       2.49604307      16.53363426 
Au       7.32391260       2.49533586      16.53651112 
Au       2.93829131       5.02188112      16.52977045 
Au       5.85859483       4.95153676      16.46761635 
Au       8.77934083       5.02110023      16.53026880 
Ag       8.77050055       1.65814841      14.15425014 
Ag       2.92650754       1.65756738      14.15232022 
Ag       5.84961298       1.67863375      14.13549328 
Ag      10.23011766       4.21965478      14.11538736 
Ag       4.37986362       4.20338559      14.12450539 
Ag       7.31997775       4.20500137      14.12524348 
Ag      11.71398572       6.75052249      14.17020895 
Ag       5.84760370       6.74331170      14.18525065 
Ag       8.74664935       6.75166775      14.16845791 
O       5.86560871       7.42046722      18.31738114 
H       1.48944490       0.67989247      18.80490528 
