46
Lattice="8.850572737399542 0.0 0.0 4.425286368699771 7.664820828629981 0.0 0.0 0.0 23.635283172451828" Properties=species:S:1:pos:R:3 pbc="T T T"
Au       8.85057274       1.70329352       7.00000000 
Au       2.95019091       1.70329352       7.00000000 
Au       5.90038182       1.70329352       7.00000000 
Au      10.32566819       4.25823379       7.00000000 
Au       4.42528637       4.25823379       7.00000000 
Au       7.37547728       4.25823379       7.00000000 
Au      11.80076365       6.81317407       7.00000000 
Au       5.90038182       6.81317407       7.00000000 
Au       8.85057274       6.81317407       7.00000000 
Au       0.00000000       0.00000000       9.40882079 
Au       2.95019091       0.00000000       9.40882079 
Au       5.90038182       0.00000000       9.40882079 
Au       1.47509546       2.55494028       9.40882079 
Au       4.42528637       2.55494028       9.40882079 
Au       7.37547728       2.55494028       9.40882079 
Au       2.95019091       5.10988055       9.40882079 
Au       5.90038182       5.10988055       9.40882079 
Au       8.85057274       5.10988055       9.40882079 
Au       1.47509546       0.85164676      11.81764159 
Au       4.42528637       0.85164676      11.81764159 
Au       7.37547728       0.85164676      11.81764159 
Au       2.95019091       3.40658703      11.81764159 
Au       5.90038182       3.40658703      11.81764159 
Au       8.85057274       3.40658703      11.81764159 
Au       4.42528637       5.96152731      11.81764159 
Au       7.37547728       5.96152731      11.81764159 
Au      10.32566819       5.96152731      11.81764159 
Au      13.20672114       7.62490400      15.95711368 
Au       7.44461525       7.62490400      15.95711368 
Au      10.32566819       7.65098969      15.85875362 
Au      10.32566819       2.63477393      15.95711368 
Au       4.43306462       2.55943105      15.80788370 
Au       7.36769903       2.55943105      15.80788370 
Au      11.78878554       5.11679612      15.85875362 
Au       5.90038182       5.10089900      15.80788370 
Au       8.86255085       5.11679612      15.85875362 
Ni       8.92943749       1.65776093      13.86437808 
Ni       2.87132616       1.65776093      13.86437808 
Ni       5.90038182       1.65810897      13.82059651 
Ni      10.32566819       4.12268316      13.85842616 
Ni       4.38615541       4.28082607      13.82059651 
Ni       7.41460824       4.28082607      13.82059651 
Ni      11.91815394       6.88094939      13.85842616 
Ni       5.90038182       6.90423924      13.86437808 
Ni       8.73318245       6.88094939      13.85842616 
Cl       1.47509546       0.85164676      17.94659037 
