46
Lattice="8.592238345960848 0.0 0.0 4.296119172980424 7.44109668297288 0.0 0.0 0.0 23.354044309324177" Properties=species:S:1:pos:R:3 pbc="T T T"
Pt       8.59223835       1.65357704       7.00000000 
Pt       2.86407945       1.65357704       7.00000000 
Pt       5.72815890       1.65357704       7.00000000 
Pt      10.02427807       4.13394260       7.00000000 
Pt       4.29611917       4.13394260       7.00000000 
Pt       7.16019862       4.13394260       7.00000000 
Pt      11.45631779       6.61430816       7.00000000 
Pt       5.72815890       6.61430816       7.00000000 
Pt       8.59223835       6.61430816       7.00000000 
Pt       0.00000000       0.00000000       9.33851108 
Pt       2.86407945       0.00000000       9.33851108 
Pt       5.72815890       0.00000000       9.33851108 
Pt       1.43203972       2.48036556       9.33851108 
Pt       4.29611917       2.48036556       9.33851108 
Pt       7.16019862       2.48036556       9.33851108 
Pt       2.86407945       4.96073112       9.33851108 
Pt       5.72815890       4.96073112       9.33851108 
Pt       8.59223835       4.96073112       9.33851108 
Pt       1.43203972       0.82678852      11.56752452 
Pt       4.29587392       0.82479624      11.57073138 
Pt       7.16044387       0.82479624      11.57073138 
Pt       2.86223146       3.30793783      11.57073138 
Pt       5.72815890       3.30715408      11.56747612 
Pt       8.59408633       3.30793783      11.57073138 
Pt       4.29451644       5.78872817      11.57073138 
Pt       7.16180136       5.78872817      11.57073138 
Pt      10.02427807       5.78751964      11.54258625 
Pt      12.78652623       7.38230436      15.97825487 
Pt       7.26202991       7.38230436      15.97825487 
Pt      10.02427807       7.42969396      15.86944037 
Pt      10.02427807       2.59795020      15.97825487 
Pt       4.32597151       2.49760082      15.87326022 
Pt       7.13034628       2.49760082      15.87326022 
Pt      11.44644275       4.96643248      15.86944037 
Pt       5.72815890       4.92626061      15.87326022 
Pt       8.60211339       4.96643248      15.86944037 
Rh       8.60866143       1.64409517      13.71215251 
Rh       2.84765637       1.64409517      13.71215251 
Rh       5.72815890       1.65006232      13.69641842 
Rh      10.02427807       4.10513404      13.70780299 
Rh       4.29307533       4.13569996      13.69641842 
Rh       7.16324246       4.13569996      13.69641842 
Rh      11.48126674       6.62871244      13.70780299 
Rh       5.72815890       6.63327190      13.71215251 
Rh       8.56728940       6.62871244      13.70780299 
S       1.43203972       0.82678852      17.41941642 
