46
Lattice="8.35212609627333 0.0 0.0 4.176063048136665 7.233153374983659 0.0 0.0 0.0 23.09264320144588" Properties=species:S:1:pos:R:3 pbc="T T T"
Pt       8.35212610       1.60736742       7.00000000 
Pt       2.78404203       1.60736742       7.00000000 
Pt       5.56808406       1.60736742       7.00000000 
Pt       9.74414711       4.01841854       7.00000000 
Pt       4.17606305       4.01841854       7.00000000 
Pt       6.96010508       4.01841854       7.00000000 
Pt      11.13616813       6.42946967       7.00000000 
Pt       5.56808406       6.42946967       7.00000000 
Pt       8.35212610       6.42946967       7.00000000 
Pt       0.00000000       0.00000000       9.27316080 
Pt       2.78404203       0.00000000       9.27316080 
Pt       5.56808406       0.00000000       9.27316080 
Pt       1.39202102       2.41105112       9.27316080 
Pt       4.17606305       2.41105112       9.27316080 
Pt       6.96010508       2.41105112       9.27316080 
Pt       2.78404203       4.82210225       9.27316080 
Pt       5.56808406       4.82210225       9.27316080 
Pt       8.35212610       4.82210225       9.27316080 
Pt       1.39227137       0.80382825      11.60940821 
Pt       4.17606305       0.80364136      11.60242426 
Pt       6.95985472       0.80382825      11.60940821 
Pt       2.78400536       3.21475601      11.60242426 
Pt       5.56812074       3.21475601      11.60242426 
Pt       8.35212610       3.20643191      11.61158314 
Pt       4.17606305       5.62549687      11.60940821 
Pt       6.95291454       5.62993742      11.61158314 
Pt       9.75133766       5.62993742      11.61158314 
Pt       0.00000000       0.00000000      15.90210313 
Pt       6.97885786       7.23251652      15.79811121 
Pt       9.72539434       7.23251652      15.79811121 
Pt       9.75297197       2.42760993      15.79811121 
Pt       4.17606305       2.41105112      15.81098118 
Pt       6.95128023       2.42760993      15.79811121 
Pt      11.12624021       4.80618030      15.79811121 
Pt       5.57801198       4.80618030      15.79811121 
Pt       8.35212610       4.82210225      15.80441591 
Cu       8.35212610       1.55656780      13.73006609 
Cu       2.78886556       1.61015228      13.70635921 
Cu       5.56326054       1.61015228      13.70635921 
Cu       9.73829111       4.02179951      13.70099921 
Cu       4.17606305       4.01284881      13.70635921 
Cu       6.96596108       4.02179951      13.70099921 
Cu      11.18016188       6.45486947      13.73006609 
Cu       5.52409031       6.45486947      13.73006609 
Cu       8.35212610       6.42270774      13.70099921 
F       0.00000000       0.00000000      17.90214852 
