47
Lattice="8.33952545343259 0.0 0.0 4.169762726716295 7.22224089817956 0.0 0.0 0.0 23.078925359049936" Properties=species:S:1:pos:R:3 pbc="T T T"
Pt       8.33952545       1.60494242       7.00000000 
Pt       2.77984182       1.60494242       7.00000000 
Pt       5.55968364       1.60494242       7.00000000 
Pt       9.72944636       4.01235605       7.00000000 
Pt       4.16976273       4.01235605       7.00000000 
Pt       6.94960454       4.01235605       7.00000000 
Pt      11.11936727       6.41976969       7.00000000 
Pt       5.55968364       6.41976969       7.00000000 
Pt       8.33952545       6.41976969       7.00000000 
Pt       0.00000000       0.00000000       9.26973134 
Pt       2.77984182       0.00000000       9.26973134 
Pt       5.55968364       0.00000000       9.26973134 
Pt       1.38992091       2.40741363       9.26973134 
Pt       4.16976273       2.40741363       9.26973134 
Pt       6.94960454       2.40741363       9.26973134 
Pt       2.77984182       4.81482727       9.26973134 
Pt       5.55968364       4.81482727       9.26973134 
Pt       8.33952545       4.81482727       9.26973134 
Pt       1.38632344       0.80039421      11.61443826 
Pt       4.16662901       0.80074023      11.60251834 
Pt       6.94742136       0.80059685      11.61177667 
Pt       2.77677589       3.20803646      11.60251834 
Pt       5.55706699       3.20837412      11.60198718 
Pt       8.33658400       3.20074022      11.61448171 
Pt       4.16704789       5.61634496      11.61177667 
Pt       6.94021434       5.61932342      11.61448171 
Pt       9.73237067       5.61898682      11.60979879 
Pt      -0.00019253      -0.00011116      15.94913150 
Pt       6.96550026       7.22036311      15.80724001 
Pt       9.70571615       7.21882222      15.79880371 
Pt       9.73576801       2.42211862      15.80724001 
Pt       4.16549130       2.40494753      15.81142242 
Pt       6.93575355       2.42147471      15.80318109 
Pt      11.10454150       4.79598564      15.79880371 
Pt       5.56493539       4.79580141      15.80318109 
Pt       8.33554922       4.81253158      15.80729027 
Cu       8.33437446       1.55261702      13.73978070 
Cu       2.77827461       1.60403759      13.70705305 
Cu       5.55192983       1.60477259      13.70462951 
Cu       9.72245748       4.01313239      13.70104315 
Cu       4.16573874       4.00572598      13.70462951 
Cu       6.94722293       4.01098103      13.70180609 
Cu      11.15306667       6.43922604      13.73175854 
Cu       5.51179301       6.44147149      13.73978070 
Cu       8.33670334       6.41332897      13.70104315 
O      12.42046680       7.17095985      17.94657502 
H       0.70768862       0.40858421      18.28261211 
