46
Lattice="8.33952545343259 0.0 0.0 4.169762726716295 7.22224089817956 0.0 0.0 0.0 23.078925359049936" Properties=species:S:1:pos:R:3 pbc="T T T"
Pt       8.33952545       1.60494242       7.00000000 
Pt       2.77984182       1.60494242       7.00000000 
Pt       5.55968364       1.60494242       7.00000000 
Pt       9.72944636       4.01235605       7.00000000 
Pt       4.16976273       4.01235605       7.00000000 
Pt       6.94960454       4.01235605       7.00000000 
Pt      11.11936727       6.41976969       7.00000000 
Pt       5.55968364       6.41976969       7.00000000 
Pt       8.33952545       6.41976969       7.00000000 
Pt       0.00000000       0.00000000       9.26973134 
Pt       2.77984182       0.00000000       9.26973134 
Pt       5.55968364       0.00000000       9.26973134 
Pt       1.38992091       2.40741363       9.26973134 
Pt       4.16976273       2.40741363       9.26973134 
Pt       6.94960454       2.40741363       9.26973134 
Pt       2.77984182       4.81482727       9.26973134 
Pt       5.55968364       4.81482727       9.26973134 
Pt       8.33952545       4.81482727       9.26973134 
Pt       1.38992091       0.80247121      11.63242702 
Pt       4.16504085       0.80357347      11.61341285 
Pt       6.95432643       0.80357347      11.61341285 
Pt       2.77843546       3.20524444      11.61341285 
Pt       5.55968364       3.20988484      11.59815681 
Pt       8.34093181       3.20524444      11.61341285 
Pt       4.17307825       5.62083661      11.61341285 
Pt       6.94628902       5.62083661      11.61341285 
Pt       9.72944636       5.61729848      11.60426984 
Pt      12.41793646       7.16949896      15.92355659 
Pt       7.04095626       7.16949896      15.92355659 
Pt       9.72944636       7.22198301      15.79004133 
Pt       9.72944636       2.51289751      15.92355659 
Pt       4.20530193       2.42793220      15.81981159 
Pt       6.91406534       2.42793220      15.81981159 
Pt      11.11914394       4.81495621      15.79004133 
Pt       5.55968364       4.77379013      15.81981159 
Pt       8.33974879       4.81495621      15.79004133 
Cu       8.34973592       1.59904741      13.75357292 
Cu       2.76963135       1.59904741      13.75357292 
Cu       5.55968364       1.61249418      13.70020869 
Cu       9.72944636       3.99857254      13.70951854 
Cu       4.17630274       4.00858018      13.70020869 
Cu       6.94306453       4.00858018      13.70020869 
Cu      11.13130415       6.42666145      13.70951854 
Cu       5.55968364       6.43155972      13.75357292 
Cu       8.32758858       6.42666145      13.70951854 
S       1.38992091       0.80247121      17.41390054 
