46
Lattice="8.508000715118095 0.0 0.0 4.254000357559048 7.36814475470844 0.0 0.0 0.0 23.262337992566096" Properties=species:S:1:pos:R:3 pbc="T T T"
Pt       8.50800072       1.63736550       7.00000000 
Pt       2.83600024       1.63736550       7.00000000 
Pt       5.67200048       1.63736550       7.00000000 
Pt       9.92600083       4.09341375       7.00000000 
Pt       4.25400036       4.09341375       7.00000000 
Pt       7.09000060       4.09341375       7.00000000 
Pt      11.34400095       6.54946200       7.00000000 
Pt       5.67200048       6.54946200       7.00000000 
Pt       8.50800072       6.54946200       7.00000000 
Pt       0.00000000       0.00000000       9.31558450 
Pt       2.83600024       0.00000000       9.31558450 
Pt       5.67200048       0.00000000       9.31558450 
Pt       1.41800012       2.45604825       9.31558450 
Pt       4.25400036       2.45604825       9.31558450 
Pt       7.09000060       2.45604825       9.31558450 
Pt       2.83600024       4.91209650       9.31558450 
Pt       5.67200048       4.91209650       9.31558450 
Pt       8.50800072       4.91209650       9.31558450 
Pt       1.41800012       0.81868275      11.63515181 
Pt       4.25328882       0.82260322      11.62966173 
Pt       7.09071213       0.82260322      11.62966173 
Pt       2.83903969       3.27215456      11.62966173 
Pt       5.67200048       3.27473100      11.59671242 
Pt       8.50496126       3.27215456      11.62966173 
Pt       4.25775135       5.72943523      11.62966173 
Pt       7.08624961       5.72943523      11.62966173 
Pt       9.92600083       5.73077925      11.66408734 
Pt      12.63284599       7.29357703      15.81713958 
Pt       7.21915568       7.29357703      15.81713958 
Pt       9.92600083       7.35435754      15.63326692 
Pt       9.92600083       2.60518369      15.81713958 
Pt       4.26622270       2.46310483      15.70694835 
Pt       7.07777825       2.46310483      15.70694835 
Pt      11.33206088       4.91899011      15.63326692 
Pt       5.67200048       4.89798336      15.70694835 
Pt       8.51994079       4.91899011      15.63326692 
Co       8.53184603       1.62359840      13.68534408 
Co       2.81215492       1.62359840      13.68534408 
Co       5.67200048       1.69803557      13.65309339 
Co       9.92600083       3.97805687      13.64895110 
Co       4.30654218       4.06307872      13.65309339 
Co       7.03745877       4.06307872      13.65309339 
Co      11.44390294       6.60714045      13.64895110 
Co       5.67200048       6.57699620      13.68534408 
Co       8.40809872       6.60714045      13.64895110 
O       1.41800012       0.81868275      16.84516656 
