46
Lattice="8.235898954649699 0.0 0.0 4.117949477324849 7.13249771772834 0.0 0.0 0.0 22.966111116450286" Properties=species:S:1:pos:R:3 pbc="T T T"
Rh       8.23589895       1.58499949       7.00000000 
Rh       2.74529965       1.58499949       7.00000000 
Rh       5.49059930       1.58499949       7.00000000 
Rh       9.60854878       3.96249873       7.00000000 
Rh       4.11794948       3.96249873       7.00000000 
Rh       6.86324913       3.96249873       7.00000000 
Rh      10.98119861       6.33999797       7.00000000 
Rh       5.49059930       6.33999797       7.00000000 
Rh       8.23589895       6.33999797       7.00000000 
Rh       0.00000000       0.00000000       9.24152778 
Rh       2.74529965       0.00000000       9.24152778 
Rh       5.49059930       0.00000000       9.24152778 
Rh       1.37264983       2.37749924       9.24152778 
Rh       4.11794948       2.37749924       9.24152778 
Rh       6.86324913       2.37749924       9.24152778 
Rh       2.74529965       4.75499848       9.24152778 
Rh       5.49059930       4.75499848       9.24152778 
Rh       8.23589895       4.75499848       9.24152778 
Rh       1.37264983       0.79249975      11.48305556 
Rh       4.11794948       0.79249975      11.48305556 
Rh       6.86324913       0.79249975      11.48305556 
Rh       2.74529965       3.16999899      11.48305556 
Rh       5.49059930       3.16999899      11.48305556 
Rh       8.23589895       3.16999899      11.48305556 
Rh       4.11794948       5.54749822      11.48305556 
Rh       6.86324913       5.54749822      11.48305556 
Rh       9.60854878       5.54749822      11.48305556 
Rh      12.23436262       7.06351255      16.34191979 
Rh       6.98273494       7.06351255      16.34191979 
Rh       5.49059930       0.03373494      16.19720961 
Rh       9.60854878       2.51546957      16.34191979 
Rh       4.16181586       2.40282551      16.23094870 
Rh       6.81938275       2.40282551      16.23094870 
Rh       2.77451497       4.73813101      16.19720961 
Rh       5.49059930       4.70434595      16.23094870 
Rh       8.20668364       4.73813101      16.19720961 
Ag       8.24060124       1.58228463      13.93460037 
Ag       2.74059737       1.58228463      13.93460037 
Ag       5.49059930       1.58706190      13.85060216 
Ag       9.60854878       3.96028873      13.87595644 
Ag       4.11973557       3.96146753      13.85060216 
Ag       6.86146303       3.96146753      13.85060216 
Ag      10.98311252       6.34110297      13.87595644 
Ag       5.49059930       6.34542770      13.93460037 
Ag       8.23398504       6.34110297      13.87595644 
Cl       1.37264983       0.79249975      17.91716132 
