47
Lattice="8.226599086263533 0.0 0.0 4.113299543131767 7.12444379545407 0.0 0.0 0.0 22.955986702129774" Properties=species:S:1:pos:R:3 pbc="T T T"
Pd       8.22659909       1.58320973       7.00000000 
Pd       2.74219970       1.58320973       7.00000000 
Pd       5.48439939       1.58320973       7.00000000 
Pd       9.59769893       3.95802433       7.00000000 
Pd       4.11329954       3.95802433       7.00000000 
Pd       6.85549924       3.95802433       7.00000000 
Pd      10.96879878       6.33283893       7.00000000 
Pd       5.48439939       6.33283893       7.00000000 
Pd       8.22659909       6.33283893       7.00000000 
Pd       0.00000000       0.00000000       9.23899668 
Pd       2.74219970       0.00000000       9.23899668 
Pd       5.48439939       0.00000000       9.23899668 
Pd       1.37109985       2.37481460       9.23899668 
Pd       4.11329954       2.37481460       9.23899668 
Pd       6.85549924       2.37481460       9.23899668 
Pd       2.74219970       4.74962920       9.23899668 
Pd       5.48439939       4.74962920       9.23899668 
Pd       8.22659909       4.74962920       9.23899668 
Pd       1.37109985       0.79160487      11.47799335 
Pd       4.11329954       0.79160487      11.47799335 
Pd       6.85549924       0.79160487      11.47799335 
Pd       2.74219970       3.16641946      11.47799335 
Pd       5.48439939       3.16641946      11.47799335 
Pd       8.22659909       3.16641946      11.47799335 
Pd       4.11329954       5.54123406      11.47799335 
Pd       6.85549924       5.54123406      11.47799335 
Pd       9.59769893       5.54123406      11.47799335 
Pd       4.10889623       7.09055035      15.69726700 
Pd       6.86354024       7.09239554      15.69667587 
Pd       9.59949948       7.09868802      15.59629987 
Pd       9.59955749       2.38236008      15.55337451 
Pd       4.11875139       2.35107404      15.60640267 
Pd       6.85421041       2.35251879      15.60735438 
Pd       2.73795484       4.72308806      15.59731470 
Pd       5.48523981       4.69811472      15.57746023 
Pd       8.23330427       4.72497158      15.59413501 
Ni       8.20114664       1.53208767      13.54877855 
Ni       2.76581095       1.53616644      13.54655443 
Ni       5.48470710       1.57048400      13.53785422 
Ni       9.59833389       3.96426194      13.52980234 
Ni       4.10371937       3.94155580      13.53600308 
Ni       6.85858280       3.94171395      13.53579210 
Ni      11.02018060       6.36197331      13.57232280 
Ni       5.48482420       6.34834197      13.54985482 
Ni       8.17101722       6.36204615      13.57179955 
O       5.48925402       7.10647272      17.36934400 
H       1.37582076       0.85109664      17.81910943 
