47
Lattice="8.478433752169561 0.0 0.0 4.239216876084781 7.342539013682256 0.0 0.0 0.0 23.230149560358235" Properties=species:S:1:pos:R:3 pbc="T T T"
Pd       8.47843375       1.63167534       7.00000000 
Pd       2.82614458       1.63167534       7.00000000 
Pd       5.65228917       1.63167534       7.00000000 
Pd       9.89150604       4.07918834       7.00000000 
Pd       4.23921688       4.07918834       7.00000000 
Pd       7.06536146       4.07918834       7.00000000 
Pd      11.30457834       6.52670135       7.00000000 
Pd       5.65228917       6.52670135       7.00000000 
Pd       8.47843375       6.52670135       7.00000000 
Pd       0.00000000       0.00000000       9.30753739 
Pd       2.82614458       0.00000000       9.30753739 
Pd       5.65228917       0.00000000       9.30753739 
Pd       1.41307229       2.44751300       9.30753739 
Pd       4.23921688       2.44751300       9.30753739 
Pd       7.06536146       2.44751300       9.30753739 
Pd       2.82614458       4.89502601       9.30753739 
Pd       5.65228917       4.89502601       9.30753739 
Pd       8.47843375       4.89502601       9.30753739 
Pd       1.41307229       0.81583767      11.61507478 
Pd       4.23921688       0.81583767      11.61507478 
Pd       7.06536146       0.81583767      11.61507478 
Pd       2.82614458       3.26335067      11.61507478 
Pd       5.65228917       3.26335067      11.61507478 
Pd       8.47843375       3.26335067      11.61507478 
Pd       4.23921688       5.71086368      11.61507478 
Pd       7.06536146       5.71086368      11.61507478 
Pd       9.89150604       5.71086368      11.61507478 
Pd       4.24457596       7.32531786      15.95272212 
Pd       7.05857355       7.32782184      15.95257636 
Pd       9.89047720       7.33483053      15.87824243 
Pd       9.89134419       2.47471227      15.86739701 
Pd       4.23758025       2.44511061      15.88516437 
Pd       7.06790044       2.44473786      15.88630235 
Pd      11.29491045       4.89755648      15.87247528 
Pd       5.65196569       4.85715360      15.87858335 
Pd       8.48654130       4.89830241      15.87270493 
Ru       8.47322359       1.60827848      13.73599092 
Ru       2.83123589       1.60950512      13.73559497 
Ru       5.65404133       1.62822935      13.73465079 
Ru       9.89133896       4.05115790      13.75020288 
Ru       4.24274387       4.07934303      13.73668647 
Ru       7.06218834       4.07928612      13.73693156 
Ru      11.38589492       6.58709317      13.78108352 
Ru       5.65229897       6.52534872      13.72389620 
Ru       8.39500963       6.58777230      13.78157224 
O       1.41274576       0.00712728      17.61995755 
H       1.40998614       0.81091477      18.17515430 
