46
Lattice="8.592238345960848 0.0 0.0 4.296119172980424 7.44109668297288 0.0 0.0 0.0 23.354044309324177" Properties=species:S:1:pos:R:3 pbc="T T T"
Pt       8.59223835       1.65357704       7.00000000 
Pt       2.86407945       1.65357704       7.00000000 
Pt       5.72815890       1.65357704       7.00000000 
Pt      10.02427807       4.13394260       7.00000000 
Pt       4.29611917       4.13394260       7.00000000 
Pt       7.16019862       4.13394260       7.00000000 
Pt      11.45631779       6.61430816       7.00000000 
Pt       5.72815890       6.61430816       7.00000000 
Pt       8.59223835       6.61430816       7.00000000 
Pt       0.00000000       0.00000000       9.33851108 
Pt       2.86407945       0.00000000       9.33851108 
Pt       5.72815890       0.00000000       9.33851108 
Pt       1.43203972       2.48036556       9.33851108 
Pt       4.29611917       2.48036556       9.33851108 
Pt       7.16019862       2.48036556       9.33851108 
Pt       2.86407945       4.96073112       9.33851108 
Pt       5.72815890       4.96073112       9.33851108 
Pt       8.59223835       4.96073112       9.33851108 
Pt       1.43203972       0.82678852      11.55804735 
Pt       4.29450448       0.82109504      11.55243760 
Pt       7.16181332       0.82109504      11.55243760 
Pt       2.85834140       3.30860245      11.55243760 
Pt       5.72815890       3.30715408      11.54378147 
Pt       8.59797639       3.30860245      11.55243760 
Pt       4.29199582       5.79176475      11.55243760 
Pt       7.16432197       5.79176475      11.55243760 
Pt      10.02427807       5.78751964      11.53299851 
Pt       8.60262449       1.64758060      13.78197933 
Pt       2.85369330       1.64758060      13.78197933 
Pt       5.72815890       1.64907589      13.74946158 
Pt      10.02427807       4.12006224      13.78015202 
Pt       4.29222106       4.13619318      13.74946158 
Pt       7.16409674       4.13619318      13.74946158 
Pt      11.46833854       6.62124834      13.78015202 
Pt       5.72815890       6.62630105      13.78197933 
Pt       8.58021760       6.62124834      13.78015202 
Pt      12.78365315       7.38064559      16.10180745 
Pt       7.26490299       7.38064559      16.10180745 
Pt      10.02427807       7.43843612      16.02134148 
Pt      10.02427807       2.60126775      16.10180745 
Pt       4.33169724       2.50090657      15.99982218 
Pt       7.12462055       2.50090657      15.99982218 
Pt      11.45401368       4.96206140      16.02134148 
Pt       5.72815890       4.91964910      15.99982218 
Pt       8.59454246       4.96206140      16.02134148 
S       1.43203972       0.82678852      17.51690988 
