46
Lattice="8.605220826463434 0.0 0.0 4.302610413231717 7.452339840892254 0.0 0.0 0.0 23.36817784391394" Properties=species:S:1:pos:R:3 pbc="T T T"
Pt       8.60522083       1.65607552       7.00000000 
Pt       2.86840694       1.65607552       7.00000000 
Pt       5.73681388       1.65607552       7.00000000 
Pt      10.03942430       4.14018880       7.00000000 
Pt       4.30261041       4.14018880       7.00000000 
Pt       7.17101736       4.14018880       7.00000000 
Pt      11.47362777       6.62430208       7.00000000 
Pt       5.73681388       6.62430208       7.00000000 
Pt       8.60522083       6.62430208       7.00000000 
Pt       0.00000000       0.00000000       9.34204446 
Pt       2.86840694       0.00000000       9.34204446 
Pt       5.73681388       0.00000000       9.34204446 
Pt       1.43420347       2.48411328       9.34204446 
Pt       4.30261041       2.48411328       9.34204446 
Pt       7.17101736       2.48411328       9.34204446 
Pt       2.86840694       4.96822656       9.34204446 
Pt       5.73681388       4.96822656       9.34204446 
Pt       8.60522083       4.96822656       9.34204446 
Pt       1.42823804       0.82459362      11.55677414 
Pt       4.30261041       0.82978810      11.54355467 
Pt       7.17698279       0.82459362      11.55677414 
Pt       2.86992278       3.31127587      11.54355467 
Pt       5.73529804       3.31127587      11.54355467 
Pt       8.60522083       3.30546189      11.54635846 
Pt       4.30261041       5.80315261      11.55677414 
Pt       7.16522438       5.79960890      11.54635846 
Pt      10.04521727       5.79960890      11.54635846 
Pt       8.60522083       1.63630953      13.78442452 
Pt       2.86937746       1.65663585      13.74662648 
Pt       5.73584337       1.65663585      13.74662648 
Pt      10.03670730       4.14175746      13.73084701 
Pt       4.30261041       4.13906815      13.74662648 
Pt       7.17373435       4.14175746      13.73084701 
Pt      11.49074562       6.63418508      13.78442452 
Pt       5.71969603       6.63418508      13.78442452 
Pt       8.60522083       6.62116476      13.73084701 
Pt       0.00000000       0.00000000      16.06266096 
Pt       7.20285203       7.45012015      15.98585944 
Pt      10.00758963       7.45012015      15.98585944 
Pt      10.05341932       2.51279276      15.98585944 
Pt       4.30261041       2.48411328      16.00137029 
Pt       7.15702233       2.51279276      15.98585944 
Pt      11.45578812       4.94176677      15.98585944 
Pt       5.75465353       4.94176677      15.98585944 
Pt       8.60522083       4.96822656      15.99424804 
F       0.00000000       0.00000000      18.03779859 
