47
Lattice="8.592238345960848 0.0 0.0 4.296119172980424 7.44109668297288 0.0 0.0 0.0 23.354044309324177" Properties=species:S:1:pos:R:3 pbc="T T T"
Pt       8.59223835       1.65357704       7.00000000 
Pt       2.86407945       1.65357704       7.00000000 
Pt       5.72815890       1.65357704       7.00000000 
Pt      10.02427807       4.13394260       7.00000000 
Pt       4.29611917       4.13394260       7.00000000 
Pt       7.16019862       4.13394260       7.00000000 
Pt      11.45631779       6.61430816       7.00000000 
Pt       5.72815890       6.61430816       7.00000000 
Pt       8.59223835       6.61430816       7.00000000 
Pt       0.00000000       0.00000000       9.33851108 
Pt       2.86407945       0.00000000       9.33851108 
Pt       5.72815890       0.00000000       9.33851108 
Pt       1.43203972       2.48036556       9.33851108 
Pt       4.29611917       2.48036556       9.33851108 
Pt       7.16019862       2.48036556       9.33851108 
Pt       2.86407945       4.96073112       9.33851108 
Pt       5.72815890       4.96073112       9.33851108 
Pt       8.59223835       4.96073112       9.33851108 
Pt       1.43547175       0.82877000      11.59742565 
Pt       4.29348119       0.82381402      11.59699450 
Pt       7.15766084       0.83189291      11.58662593 
Pt       2.86018446       3.30635677      11.59699450 
Pt       5.73259353       3.30971442      11.59985005 
Pt       8.59253154       3.30866593      11.62177295 
Pt       4.29927081       5.78276966      11.58662593 
Pt       7.16165451       5.78701763      11.62177295 
Pt      10.01906355       5.78450904      11.59495099 
Pt       0.00861462       0.00497365      15.96583062 
Pt       7.17560714       7.43312287      15.86786857 
Pt       9.99906023       7.43201781      15.88169511 
Pt      10.02507681       2.49769664      15.86786857 
Pt       4.29508285       2.47976724      15.88234899 
Pt       7.15840244       2.50134193      15.88345533 
Pt      11.43584634       4.94343127      15.88169511 
Pt       5.74542687       4.94868740      15.88345533 
Pt       8.58720613       4.95782577      15.88683086 
Os       8.57746877       1.56668867      13.74242107 
Os       2.86278663       1.65283063      13.71111624 
Os       5.73817080       1.64359152      13.70809803 
Os      10.04915076       4.14921612      13.72086383 
Os       4.29247741       4.14760592      13.70809803 
Os       7.13612462       4.12004347      13.73249979 
Os      11.48420818       6.63041068      13.71502147 
Os       5.64552657       6.64496152      13.74242107 
Os       8.61790194       6.62821178      13.72086383 
O      12.69419659       7.32899782      17.96105869 
H       0.57159715       0.33001177      18.37774437 
