46
Lattice="7.991268292630401 0.0 0.0 3.9956341463152003 6.920641349875024 0.0 0.0 0.0 22.699790984278494" Properties=species:S:1:pos:R:3 pbc="T T T"
Rh       7.99126829       1.53792030       7.00000000 
Rh       2.66375610       1.53792030       7.00000000 
Rh       5.32751220       1.53792030       7.00000000 
Rh       9.32314634       3.84480075       7.00000000 
Rh       3.99563415       3.84480075       7.00000000 
Rh       6.65939024       3.84480075       7.00000000 
Rh      10.65502439       6.15168120       7.00000000 
Rh       5.32751220       6.15168120       7.00000000 
Rh       7.99126829       6.15168120       7.00000000 
Rh       0.00000000       0.00000000       9.17494775 
Rh       2.66375610       0.00000000       9.17494775 
Rh       5.32751220       0.00000000       9.17494775 
Rh       1.33187805       2.30688045       9.17494775 
Rh       3.99563415       2.30688045       9.17494775 
Rh       6.65939024       2.30688045       9.17494775 
Rh       2.66375610       4.61376090       9.17494775 
Rh       5.32751220       4.61376090       9.17494775 
Rh       7.99126829       4.61376090       9.17494775 
Rh       1.33187805       0.76896015      11.34989549 
Rh       3.99563415       0.76896015      11.34989549 
Rh       6.65939024       0.76896015      11.34989549 
Rh       2.66375610       3.07584060      11.34989549 
Rh       5.32751220       3.07584060      11.34989549 
Rh       7.99126829       3.07584060      11.34989549 
Rh       3.99563415       5.38272105      11.34989549 
Rh       6.65939024       5.38272105      11.34989549 
Rh       9.32314634       5.38272105      11.34989549 
Rh      11.91429510       6.87872148      16.36438391 
Rh       6.73199758       6.87872148      16.36438391 
Rh       5.32751220       0.01427882      16.19823766 
Rh       9.32314634       2.39072018      16.36438391 
Rh       4.02510994       2.32389830      16.19530862 
Rh       6.62991445       2.32389830      16.19530862 
Rh       2.67612192       4.60662149      16.19823766 
Rh       5.32751220       4.57972519      16.19530862 
Rh       7.97890247       4.60662149      16.19823766 
Ag       7.99581697       1.53529412      13.86523371 
Ag       2.65920742       1.53529412      13.86523371 
Ag       5.32751220       1.53620205      13.78189319 
Ag       9.32314634       3.84408300      13.80434581 
Ag       3.99414610       3.84565988      13.78189319 
Ag       6.66087829       3.84565988      13.78189319 
Ag      10.65564598       6.15204007      13.80434581 
Ag       5.32751220       6.15693356      13.86523371 
Ag       7.99064670       6.15204007      13.80434581 
S       1.33187805       0.76896015      17.86784944 
