46
Lattice="8.592238345960848 0.0 0.0 4.296119172980424 7.44109668297288 0.0 0.0 0.0 23.354044309324177" Properties=species:S:1:pos:R:3 pbc="T T T"
Pt       8.59223835       1.65357704       7.00000000 
Pt       2.86407945       1.65357704       7.00000000 
Pt       5.72815890       1.65357704       7.00000000 
Pt      10.02427807       4.13394260       7.00000000 
Pt       4.29611917       4.13394260       7.00000000 
Pt       7.16019862       4.13394260       7.00000000 
Pt      11.45631779       6.61430816       7.00000000 
Pt       5.72815890       6.61430816       7.00000000 
Pt       8.59223835       6.61430816       7.00000000 
Pt       0.00000000       0.00000000       9.33851108 
Pt       2.86407945       0.00000000       9.33851108 
Pt       5.72815890       0.00000000       9.33851108 
Pt       1.43203972       2.48036556       9.33851108 
Pt       4.29611917       2.48036556       9.33851108 
Pt       7.16019862       2.48036556       9.33851108 
Pt       2.86407945       4.96073112       9.33851108 
Pt       5.72815890       4.96073112       9.33851108 
Pt       8.59223835       4.96073112       9.33851108 
Pt       1.43203972       0.82678852      11.63646143 
Pt       4.29659330       0.83292939      11.63220313 
Pt       7.15972449       0.83292939      11.63220313 
Pt       2.86963466       3.30449426      11.63220313 
Pt       5.72815890       3.30715408      11.59110160 
Pt       8.58668313       3.30449426      11.63220313 
Pt       4.30120026       5.78403860      11.63220313 
Pt       7.15511754       5.78403860      11.63220313 
Pt      10.02427807       5.78751964      11.66918358 
Pt      12.73863544       7.35465460      15.78806069 
Pt       7.30992070       7.35465460      15.78806069 
Pt      10.02427807       7.42252977      15.59332314 
Pt      10.02427807       2.65324972      15.78806069 
Pt       4.30457662       2.48524847      15.67297316 
Pt       7.15174117       2.48524847      15.67297316 
Pt      11.44023837       4.97001458      15.59332314 
Pt       5.72815890       4.95096530      15.67297316 
Pt       8.60831777       4.97001458      15.59332314 
Co       8.62636800       1.63387228      13.67720567 
Co       2.82994979       1.63387228      13.67720567 
Co       5.72815890       1.73324547      13.64136919 
Co      10.02427807       4.00604232      13.62900232 
Co       4.36511406       4.09410839      13.64136919 
Co       7.09120374       4.09410839      13.64136919 
Co      11.56708269       6.67825830      13.62900232 
Co       5.72815890       6.65371769      13.67720567 
Co       8.48147345       6.67825830      13.62900232 
O       1.43203972       0.82678852      16.74053630 
