46
Lattice="8.592238345960848 0.0 0.0 4.296119172980424 7.44109668297288 0.0 0.0 0.0 23.354044309324177" Properties=species:S:1:pos:R:3 pbc="T T T"
Pt       8.59223835       1.65357704       7.00000000 
Pt       2.86407945       1.65357704       7.00000000 
Pt       5.72815890       1.65357704       7.00000000 
Pt      10.02427807       4.13394260       7.00000000 
Pt       4.29611917       4.13394260       7.00000000 
Pt       7.16019862       4.13394260       7.00000000 
Pt      11.45631779       6.61430816       7.00000000 
Pt       5.72815890       6.61430816       7.00000000 
Pt       8.59223835       6.61430816       7.00000000 
Pt       0.00000000       0.00000000       9.33851108 
Pt       2.86407945       0.00000000       9.33851108 
Pt       5.72815890       0.00000000       9.33851108 
Pt       1.43203972       2.48036556       9.33851108 
Pt       4.29611917       2.48036556       9.33851108 
Pt       7.16019862       2.48036556       9.33851108 
Pt       2.86407945       4.96073112       9.33851108 
Pt       5.72815890       4.96073112       9.33851108 
Pt       8.59223835       4.96073112       9.33851108 
Pt       1.43203972       0.82678852      11.60112865 
Pt       4.29870844       0.82854193      11.61144344 
Pt       7.15760936       0.82854193      11.61144344 
Pt       2.86689258       3.30851975      11.61144344 
Pt       5.72815890       3.30715408      11.61006127 
Pt       8.58942522       3.30851975      11.61144344 
Pt       4.29634303       5.78440057      11.61144344 
Pt       7.15997476       5.78440057      11.61144344 
Pt      10.02427807       5.78751964      11.69646103 
Pt      12.85786539       7.42349204      15.69234454 
Pt       7.19069075       7.42349204      15.69234454 
Pt      10.02427807       7.42650072      15.59775401 
Pt      10.02427807       2.51557484      15.69234454 
Pt       4.31596419       2.49182309      15.62092760 
Pt       7.14035360       2.49182309      15.62092760 
Pt      11.44367732       4.96802911      15.59775401 
Pt       5.72815890       4.93781607      15.62092760 
Pt       8.60487882       4.96802911      15.59775401 
Co       8.63287793       1.63011377      13.64148254 
Co       2.82343986       1.63011377      13.64148254 
Co       5.72815890       1.65395226      13.61969879 
Co      10.02427807       3.96913411      13.64211960 
Co       4.29644412       4.13375499      13.61969879 
Co       7.15987368       4.13375499      13.61969879 
Co      11.59904613       6.69671241      13.64211960 
Co       5.72815890       6.66123471      13.64148254 
Co       8.44951001       6.69671241      13.64211960 
Cl       1.43203972       0.82678852      17.69295274 
