46
Lattice="8.67356128265155 0.0 0.0 4.336780641325775 7.511524412057382 0.0 0.0 0.0 23.442577509002792" Properties=species:S:1:pos:R:3 pbc="T T T"
Au       8.67356128       1.66922765       7.00000000 
Au       2.89118709       1.66922765       7.00000000 
Au       5.78237419       1.66922765       7.00000000 
Au      10.11915483       4.17306912       7.00000000 
Au       4.33678064       4.17306912       7.00000000 
Au       7.22796774       4.17306912       7.00000000 
Au      11.56474838       6.67691059       7.00000000 
Au       5.78237419       6.67691059       7.00000000 
Au       8.67356128       6.67691059       7.00000000 
Au       0.00000000       0.00000000       9.36064438 
Au       2.89118709       0.00000000       9.36064438 
Au       5.78237419       0.00000000       9.36064438 
Au       1.44559355       2.50384147       9.36064438 
Au       4.33678064       2.50384147       9.36064438 
Au       7.22796774       2.50384147       9.36064438 
Au       2.89118709       5.00768294       9.36064438 
Au       5.78237419       5.00768294       9.36064438 
Au       8.67356128       5.00768294       9.36064438 
Au       1.44559355       0.83461382      11.72128875 
Au       4.33678064       0.83461382      11.72128875 
Au       7.22796774       0.83461382      11.72128875 
Au       2.89118709       3.33845529      11.72128875 
Au       5.78237419       3.33845529      11.72128875 
Au       8.67356128       3.33845529      11.72128875 
Au       4.33678064       5.84229676      11.72128875 
Au       7.22796774       5.84229676      11.72128875 
Au      10.11915483       5.84229676      11.72128875 
Au       8.68870084       1.66048682      14.19448386 
Au       2.87604754       1.66048682      14.19448386 
Au       5.78237419       1.66537350      14.12902998 
Au      10.11915483       4.15206436      14.16422166 
Au       4.33344285       4.17499619      14.12902998 
Au       7.23130552       4.17499619      14.12902998 
Au      11.58293903       6.68741297      14.16422166 
Au       5.78237419       6.69439224      14.19448386 
Au       8.65537063       6.68741297      14.16422166 
Au      12.88008678       7.43632157      16.72436408 
Au       7.35822288       7.43632157      16.72436408 
Au      10.11915483       7.50878408      16.60166807 
Au      10.11915483       2.65424716      16.72436408 
Au       4.35883074       2.51657210      16.58295265 
Au       7.20591763       2.51657210      16.58295265 
Au      11.56237518       5.00905311      16.60166807 
Au       5.78237419       4.98222168      16.58295265 
Au       8.67593448       5.00905311      16.60166807 
O       1.44559355       0.83461382      17.84773026 
