46
Lattice="8.67356128265155 0.0 0.0 4.336780641325775 7.511524412057382 0.0 0.0 0.0 23.442577509002792" Properties=species:S:1:pos:R:3 pbc="T T T"
Au       8.67356128       1.66922765       7.00000000 
Au       2.89118709       1.66922765       7.00000000 
Au       5.78237419       1.66922765       7.00000000 
Au      10.11915483       4.17306912       7.00000000 
Au       4.33678064       4.17306912       7.00000000 
Au       7.22796774       4.17306912       7.00000000 
Au      11.56474838       6.67691059       7.00000000 
Au       5.78237419       6.67691059       7.00000000 
Au       8.67356128       6.67691059       7.00000000 
Au       0.00000000       0.00000000       9.36064438 
Au       2.89118709       0.00000000       9.36064438 
Au       5.78237419       0.00000000       9.36064438 
Au       1.44559355       2.50384147       9.36064438 
Au       4.33678064       2.50384147       9.36064438 
Au       7.22796774       2.50384147       9.36064438 
Au       2.89118709       5.00768294       9.36064438 
Au       5.78237419       5.00768294       9.36064438 
Au       8.67356128       5.00768294       9.36064438 
Au       1.44559355       0.83461382      11.72128875 
Au       4.33678064       0.83461382      11.72128875 
Au       7.22796774       0.83461382      11.72128875 
Au       2.89118709       3.33845529      11.72128875 
Au       5.78237419       3.33845529      11.72128875 
Au       8.67356128       3.33845529      11.72128875 
Au       4.33678064       5.84229676      11.72128875 
Au       7.22796774       5.84229676      11.72128875 
Au      10.11915483       5.84229676      11.72128875 
Au       8.68941506       1.66007447      14.20359214 
Au       2.87533332       1.66007447      14.20359214 
Au       5.78237419       1.66207620      14.13709025 
Au      10.11915483       4.14790434      14.18555676 
Au       4.33058731       4.17664484      14.13709025 
Au       7.23416107       4.17664484      14.13709025 
Au      11.58654172       6.68949298      14.18555676 
Au       5.78237419       6.69521695      14.20359214 
Au       8.65176794       6.68949298      14.18555676 
Au      12.89468719       7.44475112      16.74566443 
Au       7.34362247       7.44475112      16.74566443 
Au      10.11915483       7.51030692      16.62534706 
Au      10.11915483       2.63738806      16.74566443 
Au       4.36420166       2.51967300      16.59654610 
Au       7.20054672       2.51967300      16.59654610 
Au      11.56369400       5.00829169      16.62534706 
Au       5.78237419       4.97601988      16.59654610 
Au       8.67461566       5.00829169      16.62534706 
S       1.44559355       0.83461382      18.32534989 
