47
Lattice="8.387980652720177 0.0 0.0 4.193990326360089 7.264204331708049 0.0 0.0 0.0 23.131676698445254" Properties=species:S:1:pos:R:3 pbc="T T T"
Ir       8.38798065       1.61426763       7.00000000 
Ir       2.79599355       1.61426763       7.00000000 
Ir       5.59198710       1.61426763       7.00000000 
Ir       9.78597743       4.03566907       7.00000000 
Ir       4.19399033       4.03566907       7.00000000 
Ir       6.98998388       4.03566907       7.00000000 
Ir      11.18397420       6.45707052       7.00000000 
Ir       5.59198710       6.45707052       7.00000000 
Ir       8.38798065       6.45707052       7.00000000 
Ir       0.00000000       0.00000000       9.28291917 
Ir       2.79599355       0.00000000       9.28291917 
Ir       5.59198710       0.00000000       9.28291917 
Ir       1.39799678       2.42140144       9.28291917 
Ir       4.19399033       2.42140144       9.28291917 
Ir       6.98998388       2.42140144       9.28291917 
Ir       2.79599355       4.84280289       9.28291917 
Ir       5.59198710       4.84280289       9.28291917 
Ir       8.38798065       4.84280289       9.28291917 
Ir       1.39799678       0.80713381      11.56583835 
Ir       4.19399033       0.80713381      11.56583835 
Ir       6.98998388       0.80713381      11.56583835 
Ir       2.79599355       3.22853526      11.56583835 
Ir       5.59198710       3.22853526      11.56583835 
Ir       8.38798065       3.22853526      11.56583835 
Ir       4.19399033       5.64993670      11.56583835 
Ir       6.98998388       5.64993670      11.56583835 
Ir       9.78597743       5.64993670      11.56583835 
Ir       0.18164412       0.10487228      16.30671362 
Ir       7.00066073       7.10473582      15.99362785 
Ir       5.43629640       0.07765151      16.00124081 
Ir       9.65321207       2.51038212      15.99362785 
Ir       4.29725443       2.48102100      16.00594493 
Ir       6.95865022       2.29400594      15.98972269 
Ir       2.78539638       4.66914503      16.00124081 
Ir       5.46599253       4.87936490      15.98972269 
Ir       8.52222794       4.92031059      16.00689800 
Pd       8.37507715       1.57934634      13.81725986 
Pd       2.78049665       1.60532049      13.85831531 
Pd       5.58210773       1.60619756      13.76518210 
Pd       9.77325300       4.02689495      13.75941638 
Pd       4.18206175       4.03114832      13.76518210 
Pd       6.98347546       4.03191144      13.84158308 
Pd      11.17987926       6.45470630      13.89546568 
Pd       5.55529262       6.46335640      13.81725986 
Pd       8.37401982       6.45043790      13.75941638 
O      12.49790236       7.21566729      18.21906459 
H       0.67045699       0.38708852      18.66749659 
