46
Lattice="8.072811846636833 0.0 0.0 4.036405923318417 6.991260139159463 0.0 0.0 0.0 22.78856436166909" Properties=species:S:1:pos:R:3 pbc="T T T"
Rh       8.07281185       1.55361336       7.00000000 
Rh       2.69093728       1.55361336       7.00000000 
Rh       5.38187456       1.55361336       7.00000000 
Rh       9.41828049       3.88403341       7.00000000 
Rh       4.03640592       3.88403341       7.00000000 
Rh       6.72734321       3.88403341       7.00000000 
Rh      10.76374913       6.21445346       7.00000000 
Rh       5.38187456       6.21445346       7.00000000 
Rh       8.07281185       6.21445346       7.00000000 
Rh       0.00000000       0.00000000       9.19714109 
Rh       2.69093728       0.00000000       9.19714109 
Rh       5.38187456       0.00000000       9.19714109 
Rh       1.34546864       2.33042005       9.19714109 
Rh       4.03640592       2.33042005       9.19714109 
Rh       6.72734321       2.33042005       9.19714109 
Rh       2.69093728       4.66084009       9.19714109 
Rh       5.38187456       4.66084009       9.19714109 
Rh       8.07281185       4.66084009       9.19714109 
Rh       1.34546864       0.77680668      11.39428218 
Rh       4.03640592       0.77680668      11.39428218 
Rh       6.72734321       0.77680668      11.39428218 
Rh       2.69093728       3.10722673      11.39428218 
Rh       5.38187456       3.10722673      11.39428218 
Rh       8.07281185       3.10722673      11.39428218 
Rh       4.03640592       5.43764677      11.39428218 
Rh       6.72734321       5.43764677      11.39428218 
Rh       9.41828049       5.43764677      11.39428218 
Rh      12.07730860       6.97283737      15.68280903 
Rh       6.75925237       6.97283737      15.68280903 
Rh       9.41828049       6.98906745      15.52154595 
Rh       9.41828049       2.36726558      15.68280903 
Rh       4.06344513       2.34603114      15.54746439 
Rh       6.70030400       2.34603114      15.54746439 
Rh      10.76185020       4.66193644      15.52154595 
Rh       5.38187456       4.62961791      15.54746439 
Rh       8.07471077       4.66193644      15.52154595 
Fe       8.07798188       1.55062844      13.55856745 
Fe       2.68576725       1.55062844      13.55856745 
Fe       5.38187456       1.55336957      13.50583000 
Fe       9.41828049       3.89123514      13.49984564 
Fe       4.03619479       3.88415531      13.50583000 
Fe       6.72755434       3.88415531      13.50583000 
Fe      10.75751225       6.21085259      13.49984564 
Fe       5.38187456       6.22042330      13.55856745 
Fe       8.07904873       6.21085259      13.49984564 
S       1.34546864       0.77680668      17.29256206 
