46
Lattice="8.255287822589835 0.0 0.0 4.127643911294918 7.149288969915119 0.0 0.0 0.0 22.987219042291855" Properties=species:S:1:pos:R:3 pbc="T T T"
Pt       8.25528782       1.58873088       7.00000000 
Pt       2.75176261       1.58873088       7.00000000 
Pt       5.50352522       1.58873088       7.00000000 
Pt       9.63116913       3.97182721       7.00000000 
Pt       4.12764391       3.97182721       7.00000000 
Pt       6.87940652       3.97182721       7.00000000 
Pt      11.00705043       6.35492353       7.00000000 
Pt       5.50352522       6.35492353       7.00000000 
Pt       8.25528782       6.35492353       7.00000000 
Pt       0.00000000       0.00000000       9.24680476 
Pt       2.75176261       0.00000000       9.24680476 
Pt       5.50352522       0.00000000       9.24680476 
Pt       1.37588130       2.38309632       9.24680476 
Pt       4.12764391       2.38309632       9.24680476 
Pt       6.87940652       2.38309632       9.24680476 
Pt       2.75176261       4.76619265       9.24680476 
Pt       5.50352522       4.76619265       9.24680476 
Pt       8.25528782       4.76619265       9.24680476 
Pt       1.37588130       0.79436544      11.59309577 
Pt       4.12698959       0.78922913      11.58827560 
Pt       6.88006084       0.78922913      11.58827560 
Pt       2.74698727       3.17946326      11.58827560 
Pt       5.50352522       3.17746176      11.57138359 
Pt       8.26006316       3.17946326      11.58827560 
Pt       4.12352289       5.56369290      11.58827560 
Pt       6.88352754       5.56369290      11.58827560 
Pt       9.63116913       5.56055809      11.62452323 
Pt      12.32619957       7.11653464      16.24191867 
Pt       6.93613869       7.11653464      16.24191867 
Pt       5.50352522       0.00704671      16.23376584 
Pt       9.63116913       2.44860499      16.24191867 
Pt       4.14853455       2.39515754      16.19250482 
Pt       6.85851588       2.39515754      16.19250482 
Pt       2.75786524       4.76266929      16.23376584 
Pt       5.50352522       4.74207022      16.19250482 
Pt       8.24918519       4.76266929      16.23376584 
Pd       8.25874669       1.58673391      13.89176873 
Pd       2.74830374       1.58673391      13.89176873 
Pd       5.50352522       1.58592825      13.86611913 
Pd       9.63116913       3.95797680      13.93283402 
Pd       4.12521676       3.97322852      13.86611913 
Pd       6.88183367       3.97322852      13.86611913 
Pd      11.01904524       6.36184873      13.93283402 
Pd       5.50352522       6.35891748      13.89176873 
Pd       8.24329302       6.36184873      13.93283402 
Cl       1.37588130       0.79436544      18.13733114 
