46
Lattice="8.235898954649699 0.0 0.0 4.117949477324849 7.13249771772834 0.0 0.0 0.0 22.966111116450286" Properties=species:S:1:pos:R:3 pbc="T T T"
Rh       8.23589895       1.58499949       7.00000000 
Rh       2.74529965       1.58499949       7.00000000 
Rh       5.49059930       1.58499949       7.00000000 
Rh       9.60854878       3.96249873       7.00000000 
Rh       4.11794948       3.96249873       7.00000000 
Rh       6.86324913       3.96249873       7.00000000 
Rh      10.98119861       6.33999797       7.00000000 
Rh       5.49059930       6.33999797       7.00000000 
Rh       8.23589895       6.33999797       7.00000000 
Rh       0.00000000       0.00000000       9.24152778 
Rh       2.74529965       0.00000000       9.24152778 
Rh       5.49059930       0.00000000       9.24152778 
Rh       1.37264983       2.37749924       9.24152778 
Rh       4.11794948       2.37749924       9.24152778 
Rh       6.86324913       2.37749924       9.24152778 
Rh       2.74529965       4.75499848       9.24152778 
Rh       5.49059930       4.75499848       9.24152778 
Rh       8.23589895       4.75499848       9.24152778 
Rh       1.37264983       0.79249975      11.48305556 
Rh       4.11794948       0.79249975      11.48305556 
Rh       6.86324913       0.79249975      11.48305556 
Rh       2.74529965       3.16999899      11.48305556 
Rh       5.49059930       3.16999899      11.48305556 
Rh       8.23589895       3.16999899      11.48305556 
Rh       4.11794948       5.54749822      11.48305556 
Rh       6.86324913       5.54749822      11.48305556 
Rh       9.60854878       5.54749822      11.48305556 
Rh      12.25392981       7.07480967      16.31673280 
Rh       6.96316776       7.07480967      16.31673280 
Rh       5.49059930       0.02882674      16.21460147 
Rh       9.60854878       2.49287533      16.31673280 
Rh       4.15715150       2.40013254      16.22628228 
Rh       6.82404711       2.40013254      16.22628228 
Rh       2.77026434       4.74058511      16.21460147 
Rh       5.49059930       4.70973188      16.22628228 
Rh       8.21093426       4.74058511      16.21460147 
Au       8.24085115       1.58214034      13.91432508 
Au       2.74034745       1.58214034      13.91432508 
Au       5.49059930       1.58536406      13.84734491 
Au       9.60854878       3.96056377      13.88339237 
Au       4.11826520       3.96231645      13.84734491 
Au       6.86293341       3.96231645      13.84734491 
Au      10.98287433       6.34096545      13.88339237 
Au       5.49059930       6.34571628      13.91432508 
Au       8.23422323       6.34096545      13.88339237 
Cl       1.37264983       0.79249975      17.93328885 
